LL_Report_PartII/A03c_BaseCaseDERPVLoad_07062018.raw
0,100.0


1,'Costa su    ',115.0,1,0.0,0.0,1,1,0.9991939695,4.2551701999,1
2,'Bayamon     ',115.0,1,0.0,0.0,1,1,1.0072963851,0.4288995443,1
3,'Rio Laja    ',115.0,1,0.0,0.0,1,1,1.0051681801,-1.4197953154,1
4,'Mayaguez    ',115.0,1,0.0,0.0,1,1,1.0238745671,-0.0507270061,1
5,'Aguadill    ',115.0,1,0.0,0.0,1,1,1.0182753377,-0.9725223102,1
6,'Mora        ',115.0,1,0.0,0.0,1,1,1.0141653391,-1.1827589131,1
7,'San Anto    ',115.0,1,0.0,0.0,1,1,1.0121958502,-1.2515102508,1
8,'Monacill    ',115.0,1,0.0,0.0,1,1,1.0098660233,-0.0334377738,1
9,'Aguas Bu    ',115.0,1,0.0,0.0,1,1,1.0071990273,0.601241279,1
10,'Aurora      ',115.0,1,0.0,0.0,1,1,1.0117227402,-0.1867682818,1
11,'Ecoelect    ',115.0,1,0.0,0.0,1,1,0.9894057845,-3.3015944433,1
12,'Arecibo     ',115.0,1,0.0,0.0,1,1,1.0050737204,-1.3357411798,1
13,'Toro Neg    ',115.0,1,0.0,0.0,1,1,0.9850085455,-2.9995020644,1
14,'Ponce       ',115.0,1,0.0,0.0,1,1,0.9940550504,-2.7656300906,1
15,'San Seba    ',115.0,1,0.0,0.0,1,1,1.0129079201,-0.9769055692,1
16,'Don Boco    ',115.0,1,0.0,0.0,1,1,0.9887964151,-0.9614159987,1
17,'Pajaros     ',115.0,1,0.0,0.0,1,1,1.0092857125,-0.6823593259,1
18,'Ciales      ',115.0,1,0.0,0.0,1,1,0.9992709194,-0.858073591,1
19,'Dos Boca    ',115.0,1,0.0,0.0,1,1,0.9887311843,-0.9630011734,1
20,'Sabana L    ',115.0,1,0.0,0.0,1,1,1.014517084,-0.6536655305,1
21,'Caguas      ',115.0,1,0.0,0.0,1,1,1.0001511594,2.6385641946,1
22,'San Juan    ',115.0,1,0.0,0.0,1,1,1.0116356516,-0.2738788556,1
23,'Puerto N    ',115.0,1,0.0,0.0,1,1,1.0116501204,-0.273964029,1
24,'Union Ca    ',115.0,1,0.0,0.0,1,1,1.0097673652,-1.5505473668,1
25,'San Juan    ',115.0,1,0.0,0.0,1,1,1.0099362312,0.004142213,1
26,'Hato Rey    ',115.0,1,0.0,0.0,1,1,1.0132143404,-0.3602054266,1
27,'Daguao      ',115.0,1,0.0,0.0,1,1,1.0154037752,-1.7632446724,1
28,'Trujillo    ',115.0,1,0.0,0.0,1,1,1.0118326902,-0.4754676022,1
29,'Fajardo     ',115.0,1,0.0,0.0,1,1,1.0186457418,-2.7721759001,1
30,'Aguirre     ',115.0,3,0.0,0.0,1,1,1.0234705593,0.0,1
31,'Maunabo     ',115.0,1,0.0,0.0,1,1,0.9959811107,-1.2776592065,1
32,'Candeler    ',115.0,1,0.0,0.0,1,1,1.0090285522,-1.6227310838,1
33,'Humacao     ',115.0,1,0.0,0.0,1,1,1.0060175396,-2.0086073761,1
34,'Comerio     ',115.0,1,0.0,0.0,1,1,1.0007900345,0.1493042177,1
35,'Coto Nor    ',115.0,1,0.0,0.0,1,1,1.0109077847,-2.1928833725,1
36,'Monte Ca    ',115.0,1,0.0,0.0,1,1,0.992224271,-3.4380406682,1
37,'Central     ',115.0,1,0.0,0.0,1,1,1.0026287553,-0.1201217612,1
38,'Cayey       ',115.0,1,0.0,0.0,1,1,1.0032618871,1.0895966421,1
39,'Toro Neg    ',115.0,1,0.0,0.0,1,1,1.0121507892,0.5562977447,1
40,'Central     ',115.0,1,0.0,0.0,1,1,1.0038238959,1.3650760206,1
41,'Planta d    ',115.0,1,0.0,0.0,1,1,0.9972381623,1.2286080843,1
42,'Planta d    ',115.0,1,0.0,0.0,1,1,0.9949169543,3.0440853839,1
43,'Central     ',115.0,1,0.0,0.0,1,1,1.0060981193,-0.3544047511,1
44,'Rio Blan    ',115.0,1,0.0,0.0,1,1,1.0147759784,-1.3869578467,1
45,'Quebrada    ',115.0,1,0.0,0.0,1,1,0.9957697924,-1.3140560619,1
46,'Caonilla    ',115.0,2,0.0,0.0,1,1,0.9923675591,-0.7300340768,1
47,'Loiza Ta    ',115.0,1,0.0,0.0,1,1,0.9902385182,-1.0174389271,1
48,'Yabucoa     ',115.0,1,0.0,0.0,1,1,1.004794323,-1.4731648983,1
49,'Planta H    ',115.0,1,0.0,0.0,1,1,0.9978183429,1.0944540109,1
50,'Olimpo T    ',115.0,1,0.0,0.0,1,1,1.0059882355,-0.3601204177,1
51,'Aguas Bu    ',230.0,1,0.0,0.0,1,1,1.0333822325,-0.1118726714,1
52,'Aguirre_    ',230.0,1,0.0,0.0,1,1,1.0413543736,0.2951626392,1
53,'Aurora_H    ',230.0,1,0.0,0.0,1,1,1.0317881771,-0.375798797,1
54,'Bayamon_    ',230.0,1,0.0,0.0,1,1,1.0319896682,-0.0729594314,1
55,'Candeler    ',230.0,1,0.0,0.0,1,1,1.0264535967,-0.7679700098,1
56,'Comerio_    ',230.0,1,0.0,0.0,1,1,1.0062218199,0.5439334307,1
57,'Costa su    ',230.0,1,0.0,0.0,1,1,1.0413375254,0.7748170369,1
58,'Coto Nor    ',230.0,1,0.0,0.0,1,1,1.0343630732,-0.2841661776,1
59,'Mayaguez    ',230.0,1,0.0,0.0,1,1,1.0390640431,0.4139811233,1
60,'Rio Blan    ',230.0,1,0.0,0.0,1,1,1.0287178965,-0.6714917337,1
61,'Sabana L    ',230.0,1,0.0,0.0,1,1,1.0321722651,-0.3962314986,1
62,'kVSub19     ',38.0,1,0.0,0.0,1,1,0.9980011505,-0.486855083,1
63,'kVSub21     ',38.0,1,0.0,0.0,1,1,1.0121451994,-1.2828185337,1
64,'kVSub28     ',38.0,1,0.0,0.0,1,1,1.0121453926,-1.2827826992,1
65,'kVSub46     ',38.0,1,0.0,0.0,1,1,1.0121453952,-1.28277124,1
66,'kVSub66     ',38.0,1,0.0,0.0,1,1,0.9687425477,-1.39815144,1
67,'kVSub124    ',38.0,1,0.0,0.0,1,1,1.0121450185,-1.2827441541,1
68,'kVSub41     ',38.0,1,0.0,0.0,1,1,0.9767666851,9.5169700435,1
69,'kVSub0      ',38.0,2,0.0,0.0,1,1,0.9767665543,9.5170951019,1
70,'kVSub102    ',38.0,1,0.0,0.0,1,1,1.0121451913,-1.2828210596,1
71,'kVSub139    ',38.0,1,0.0,0.0,1,1,0.9687419064,-1.3981686792,1
72,'kVSub285    ',38.0,1,0.0,0.0,1,1,0.9801959454,-4.4107742173,1
73,'kVSub297    ',38.0,1,0.0,0.0,1,1,1.0057471002,-4.2711274171,1
74,'kVSub136    ',38.0,1,0.0,0.0,1,1,1.0121445785,-1.2824625181,1
75,'kVSub142    ',38.0,1,0.0,0.0,1,1,0.9890461634,-3.9920860211,1
76,'kVSub192    ',38.0,1,0.0,0.0,1,1,1.0001173794,-1.1828074464,1
77,'kVSub294    ',38.0,1,0.0,0.0,1,1,0.9520127866,-7.9955711093,1
78,'kVSub88     ',38.0,1,0.0,0.0,1,1,0.9953583372,0.4340788808,1
79,'kVSub83     ',38.0,1,0.0,0.0,1,1,0.9767664543,9.5169640772,1
80,'kVSub239    ',38.0,1,0.0,0.0,1,1,1.0121425794,-1.2831960086,1
81,'kVSub245    ',38.0,1,0.0,0.0,1,1,1.0121456141,-1.2827255363,1
82,'kVSub264    ',38.0,1,0.0,0.0,1,1,1.0121428858,-1.2831100268,1
83,'kVSub299    ',38.0,1,0.0,0.0,1,1,1.0121454123,-1.2827814984,1
84,'kVSub165    ',38.0,1,0.0,0.0,1,1,0.968741883,-1.3981699667,1
85,'kVSub182    ',38.0,1,0.0,0.0,1,1,0.9687418947,-1.3981699079,1
86,'kVSub288    ',38.0,1,0.0,0.0,1,1,0.9775407089,-3.9091829291,1
87,'kVSub125    ',38.0,1,0.0,0.0,1,1,1.0121454004,-1.2827720819,1
88,'kVSub230    ',38.0,1,0.0,0.0,1,1,1.0121451569,-1.2828254919,1
89,'kVSub54     ',38.0,1,0.0,0.0,1,1,1.0121454031,-1.2827717605,1
90,'kVSub100    ',38.0,1,0.0,0.0,1,1,1.0121454719,-1.282772452,1
91,'kVSub260    ',38.0,1,0.0,0.0,1,1,1.0121432498,-1.2830758787,1
92,'kVSub53     ',38.0,1,0.0,0.0,1,1,0.9909923676,-1.8923729496,1
93,'kVSub2      ',38.0,2,0.0,0.0,1,1,0.9767666658,9.5169733958,1
94,'kVSub58     ',38.0,1,0.0,0.0,1,1,1.012145399,-1.2827716422,1
95,'kVSub178    ',38.0,1,0.0,0.0,1,1,1.0121424547,-1.2832239112,1
96,'kVSub70     ',38.0,1,0.0,0.0,1,1,1.0121454695,-1.2827706807,1
97,'kVSub1      ',38.0,2,0.0,0.0,1,1,0.9687419213,-1.3981722019,1
98,'kVSub101    ',38.0,1,0.0,0.0,1,1,1.0121451922,-1.2828197226,1
99,'kVSub103    ',38.0,1,0.0,0.0,1,1,1.0121452778,-1.2828043333,1
100,'kVSub104    ',38.0,1,0.0,0.0,1,1,1.0121454098,-1.2827812984,1
101,'kVSub105    ',38.0,1,0.0,0.0,1,1,1.0121454089,-1.2827813529,1
102,'kVSub107    ',38.0,1,0.0,0.0,1,1,1.0121450865,-1.2828301989,1
103,'kVSub108    ',38.0,1,0.0,0.0,1,1,1.0121450836,-1.2828307007,1
104,'kVSub109    ',38.0,1,0.0,0.0,1,1,0.9767665322,9.5170911608,1
105,'kVSub11     ',38.0,1,0.0,0.0,1,1,1.0121450622,-1.2828435446,1
106,'kVSub110    ',38.0,1,0.0,0.0,1,1,0.9767665345,9.5170915684,1
107,'kVSub111    ',38.0,1,0.0,0.0,1,1,0.9767665322,9.5170911586,1
108,'kVSub112    ',38.0,1,0.0,0.0,1,1,0.9767665324,9.517091197,1
109,'kVSub113    ',38.0,1,0.0,0.0,1,1,0.9767665347,9.5170916057,1
110,'kVSub114    ',38.0,1,0.0,0.0,1,1,0.9767665345,9.5170915684,1
111,'kVSub115    ',38.0,1,0.0,0.0,1,1,1.0121451546,-1.2828223537,1
112,'kVSub116    ',38.0,1,0.0,0.0,1,1,1.0,0.0,1
113,'kVSub117    ',38.0,1,0.0,0.0,1,1,1.0,0.0,1
114,'kVSub118    ',38.0,1,0.0,0.0,1,1,1.0121454037,-1.282771556,1
115,'kVSub120    ',38.0,1,0.0,0.0,1,1,1.0121454037,-1.2827715561,1
116,'kVSub121    ',38.0,1,0.0,0.0,1,1,1.0121454037,-1.2827715525,1
117,'kVSub122    ',38.0,1,0.0,0.0,1,1,1.012145403,-1.2827716715,1
118,'kVSub123    ',38.0,1,0.0,0.0,1,1,1.0121453934,-1.2827707986,1
119,'kVSub126    ',38.0,1,0.0,0.0,1,1,1.0121425844,-1.2831943339,1
120,'kVSub127    ',38.0,1,0.0,0.0,1,1,1.0121425827,-1.2831946308,1
121,'kVSub128    ',38.0,1,0.0,0.0,1,1,1.0,0.0,1
122,'kVSub129    ',38.0,1,0.0,0.0,1,1,1.0121454199,-1.2827013513,1
123,'kVSub13     ',38.0,1,0.0,0.0,1,1,1.0121453888,-1.2827849804,1
124,'kVSub130    ',38.0,1,0.0,0.0,1,1,1.0121444573,-1.282351221,1
125,'kVSub131    ',38.0,1,0.0,0.0,1,1,1.0121456074,-1.28272887,1
126,'kVSub132    ',38.0,1,0.0,0.0,1,1,1.0121435435,-1.2830355999,1
127,'kVSub133    ',38.0,1,0.0,0.0,1,1,1.0121455082,-1.2827313535,1
128,'kVSub134    ',38.0,1,0.0,0.0,1,1,1.0121444658,-1.2823343485,1
129,'kVSub135    ',38.0,1,0.0,0.0,1,1,0.9687418632,-1.3981698141,1
130,'kVSub137    ',38.0,1,0.0,0.0,1,1,1.0121447381,-1.2824571766,1
131,'kVSub138    ',38.0,1,0.0,0.0,1,1,1.0121454853,-1.2827352945,1
132,'kVSub14     ',38.0,1,0.0,0.0,1,1,1.0,0.0,1
133,'kVSub140    ',38.0,1,0.0,0.0,1,1,0.9687418642,-1.3981696272,1
134,'kVSub141    ',38.0,1,0.0,0.0,1,1,1.0121453167,-1.2827643977,1
135,'kVSub143    ',38.0,1,0.0,0.0,1,1,0.9890461079,-3.9920958424,1
136,'kVSub144    ',38.0,1,0.0,0.0,1,1,1.0121443926,-1.2823364414,1
137,'kVSub145    ',38.0,1,0.0,0.0,1,1,1.0121453286,-1.2827623181,1
138,'kVSub147    ',38.0,1,0.0,0.0,1,1,1.0057470926,-4.2711287414,1
139,'kVSub148    ',38.0,1,0.0,0.0,1,1,1.0121444716,-1.282333339,1
140,'kVSub149    ',38.0,1,0.0,0.0,1,1,1.0121444668,-1.2823341703,1
141,'kVSub150    ',38.0,1,0.0,0.0,1,1,0.9687418246,-1.3981700139,1
142,'kVSub151    ',38.0,1,0.0,0.0,1,1,1.0121424279,-1.2832256232,1
143,'kVSub152    ',38.0,1,0.0,0.0,1,1,1.0121444675,-1.2823340516,1
144,'kVSub153    ',38.0,1,0.0,0.0,1,1,0.9520125848,-7.9956038558,1
145,'kVSub154    ',38.0,1,0.0,0.0,1,1,1.0121453407,-1.2827602393,1
146,'kVSub155    ',38.0,1,0.0,0.0,1,1,0.9687418625,-1.3981699342,1
147,'kVSub156    ',38.0,1,0.0,0.0,1,1,1.0121454397,-1.2827677631,1
148,'kVSub157    ',38.0,1,0.0,0.0,1,1,0.9687418508,-1.3981699262,1
149,'kVSub158    ',38.0,1,0.0,0.0,1,1,0.968741864,-1.3981696673,1
150,'kVSub159    ',38.0,1,0.0,0.0,1,1,0.9687418266,-1.398169661,1
151,'kVSub16     ',38.0,1,0.0,0.0,1,1,1.0,0.0,1
152,'kVSub161    ',38.0,1,0.0,0.0,1,1,0.9687418261,-1.3981697366,1
153,'kVSub162    ',38.0,1,0.0,0.0,1,1,0.9687418233,-1.3981702408,1
154,'kVSub163    ',38.0,1,0.0,0.0,1,1,0.9687418529,-1.3981699254,1
155,'kVSub164    ',38.0,1,0.0,0.0,1,1,1.0121444709,-1.2823334577,1
156,'kVSub166    ',38.0,1,0.0,0.0,1,1,1.0121422708,-1.2832526495,1
157,'kVSub168    ',38.0,1,0.0,0.0,1,1,1.0121453604,-1.2827777127,1
158,'kVSub169    ',38.0,1,0.0,0.0,1,1,1.0121454037,-1.2827715561,1
159,'kVSub17     ',38.0,1,0.0,0.0,1,1,1.0121454089,-1.2827813486,1
160,'kVSub170    ',38.0,1,0.0,0.0,1,1,1.012145423,-1.2827641992,1
161,'kVSub171    ',38.0,1,0.0,0.0,1,1,1.012142266,-1.2832534809,1
162,'kVSub172    ',38.0,1,0.0,0.0,1,1,1.012142266,-1.2832534809,1
163,'kVSub173    ',38.0,1,0.0,0.0,1,1,1.0121423433,-1.2832401756,1
164,'kVSub174    ',38.0,1,0.0,0.0,1,1,0.9687420049,-1.3981698148,1
165,'kVSub175    ',38.0,1,0.0,0.0,1,1,1.0121422748,-1.2832519567,1
166,'kVSub176    ',38.0,1,0.0,0.0,1,1,1.0121422708,-1.2832526495,1
167,'kVSub177    ',38.0,1,0.0,0.0,1,1,1.0121424676,-1.2832187923,1
168,'kVSub179    ',38.0,1,0.0,0.0,1,1,1.0121437996,-1.2829993527,1
169,'kVSub18     ',38.0,1,0.0,0.0,1,1,1.0,0.0,1
170,'kVSub180    ',38.0,1,0.0,0.0,1,1,1.0121455082,-1.2827313535,1
171,'kVSub181    ',38.0,1,0.0,0.0,1,1,0.9520127242,-7.9955820757,1
172,'kVSub183    ',38.0,1,0.0,0.0,1,1,0.9687418261,-1.3981697366,1
173,'kVSub184    ',38.0,1,0.0,0.0,1,1,1.012142471,-1.2832181984,1
174,'kVSub185    ',38.0,1,0.0,0.0,1,1,1.012142295,-1.2832484916,1
175,'kVSub186    ',38.0,1,0.0,0.0,1,1,1.0,0.0,1
176,'kVSub187    ',38.0,1,0.0,0.0,1,1,1.0,0.0,1
177,'kVSub188    ',38.0,1,0.0,0.0,1,1,1.0,0.0,1
178,'kVSub189    ',38.0,1,0.0,0.0,1,1,0.9801959304,-4.4107768722,1
179,'kVSub190    ',38.0,1,0.0,0.0,1,1,1.0121422748,-1.2832519567,1
180,'kVSub191    ',38.0,1,0.0,0.0,1,1,1.0,0.0,1
181,'kVSub193    ',38.0,1,0.0,0.0,1,1,1.0,0.0,1
182,'kVSub194    ',38.0,1,0.0,0.0,1,1,1.0,0.0,1
183,'kVSub195    ',38.0,1,0.0,0.0,1,1,1.0,0.0,1
184,'kVSub196    ',38.0,1,0.0,0.0,1,1,0.9801959296,-4.41077702,1
185,'kVSub197    ',38.0,1,0.0,0.0,1,1,1.0121453166,-1.2827643966,1
186,'kVSub198    ',38.0,1,0.0,0.0,1,1,0.9687419009,-1.3981772193,1
187,'kVSub20     ',38.0,1,0.0,0.0,1,1,1.0121454089,-1.2827813529,1
188,'kVSub200    ',38.0,1,0.0,0.0,1,1,1.0121422748,-1.2832519567,1
189,'kVSub203    ',38.0,1,0.0,0.0,1,1,0.9890461156,-3.9920944749,1
190,'kVSub204    ',38.0,1,0.0,0.0,1,1,1.012142471,-1.2832181984,1
191,'kVSub205    ',38.0,1,0.0,0.0,1,1,1.0121425846,-1.2831942894,1
192,'kVSub206    ',38.0,1,0.0,0.0,1,1,1.0121454038,-1.2827715387,1
193,'kVSub207    ',38.0,1,0.0,0.0,1,1,1.0057470917,-4.2711288917,1
194,'kVSub208    ',38.0,1,0.0,0.0,1,1,1.0121433548,-1.2830619268,1
195,'kVSub209    ',38.0,1,0.0,0.0,1,1,1.0121435435,-1.2830355999,1
196,'kVSub210    ',38.0,1,0.0,0.0,1,1,0.9687419298,-1.398171986,1
197,'kVSub211    ',38.0,1,0.0,0.0,1,1,0.968741864,-1.3981696673,1
198,'kVSub212    ',38.0,1,0.0,0.0,1,1,0.968741864,-1.3981696673,1
199,'kVSub213    ',38.0,1,0.0,0.0,1,1,0.9520126103,-7.9956034174,1
200,'kVSub214    ',38.0,1,0.0,0.0,1,1,1.005747092,-4.2711288316,1
...
0 / END OF BUS DATA, BEGIN LOAD DATA
62,' C',1,1,1,6.3887612707,2.0998842815,0.0,0.0,0.0,0.0,1
62,' I',1,1,1,29.8142192634,9.7994599802,0.0,0.0,0.0,0.0,1
62,' P',1,1,1,6.3887612707,2.0998842815,0.0,0.0,0.0,0.0,1
62,'PV',1,1,1,-12.7775225415,-4.1997685629,0.0,0.0,0.0,0.0,1
63,' C',1,1,1,3.1402522837,1.0321510119,0.0,0.0,0.0,0.0,1
63,' I',1,1,1,14.6545106572,4.8167047222,0.0,0.0,0.0,0.0,1
63,' P',1,1,1,3.1402522837,1.0321510119,0.0,0.0,0.0,0.0,1
64,' C',1,1,1,6.3887612707,2.0998842815,0.0,0.0,0.0,0.0,1
64,' I',1,1,1,29.8142192634,9.7994599802,0.0,0.0,0.0,0.0,1
64,' P',1,1,1,6.3887612707,2.0998842815,0.0,0.0,0.0,0.0,1
65,' C',1,1,1,6.3887612707,2.0998842815,0.0,0.0,0.0,0.0,1
65,' I',1,1,1,29.8142192634,9.7994599802,0.0,0.0,0.0,0.0,1
65,' P',1,1,1,6.3887612707,2.0998842815,0.0,0.0,0.0,0.0,1
66,' C',1,1,1,3.1402522837,1.0321510119,0.0,0.0,0.0,0.0,1
66,' I',1,1,1,14.6545106572,4.8167047222,0.0,0.0,0.0,0.0,1
66,' P',1,1,1,3.1402522837,1.0321510119,0.0,0.0,0.0,0.0,1
67,' C',1,1,1,3.1402522837,1.0321510119,0.0,0.0,0.0,0.0,1
67,' I',1,1,1,14.6545106572,4.8167047222,0.0,0.0,0.0,0.0,1
67,' P',1,1,1,3.1402522837,1.0321510119,0.0,0.0,0.0,0.0,1
67,'PV',1,1,1,-6.2805045674,-2.0643020238,0.0,0.0,0.0,0.0,1
68,' C',1,1,1,6.3887612707,2.0998842815,0.0,0.0,0.0,0.0,1
68,' I',1,1,1,29.8142192634,9.7994599802,0.0,0.0,0.0,0.0,1
68,' P',1,1,1,6.3887612707,2.0998842815,0.0,0.0,0.0,0.0,1
68,'PV',1,1,1,-12.7775225415,-4.1997685629,0.0,0.0,0.0,0.0,1
69,' C',1,1,1,3.1402522837,1.0321510119,0.0,0.0,0.0,0.0,1
69,' I',1,1,1,14.6545106572,4.8167047222,0.0,0.0,0.0,0.0,1
69,' P',1,1,1,3.1402522837,1.0321510119,0.0,0.0,0.0,0.0,1
70,' C',1,1,1,6.3887612707,2.0998842815,0.0,0.0,0.0,0.0,1
70,' I',1,1,1,29.8142192634,9.7994599802,0.0,0.0,0.0,0.0,1
70,' P',1,1,1,6.3887612707,2.0998842815,0.0,0.0,0.0,0.0,1
71,' C',1,1,1,3.1402522837,1.0321510119,0.0,0.0,0.0,0.0,1
71,' I',1,1,1,14.6545106572,4.8167047222,0.0,0.0,0.0,0.0,1
71,' P',1,1,1,3.1402522837,1.0321510119,0.0,0.0,0.0,0.0,1
71,'PV',1,1,1,-6.2805045674,-2.0643020238,0.0,0.0,0.0,0.0,1
72,' C',1,1,1,3.1402522837,1.0321510119,0.0,0.0,0.0,0.0,1
72,' I',1,1,1,14.6545106572,4.8167047222,0.0,0.0,0.0,0.0,1
72,' P',1,1,1,3.1402522837,1.0321510119,0.0,0.0,0.0,0.0,1
73,' C',1,1,1,6.3887612707,2.0998842815,0.0,0.0,0.0,0.0,1
73,' I',1,1,1,29.8142192634,9.7994599802,0.0,0.0,0.0,0.0,1
73,' P',1,1,1,6.3887612707,2.0998842815,0.0,0.0,0.0,0.0,1
74,' C',1,1,1,6.3887612707,2.0998842815,0.0,0.0,0.0,0.0,1
74,' I',1,1,1,29.8142192634,9.7994599802,0.0,0.0,0.0,0.0,1
74,' P',1,1,1,6.3887612707,2.0998842815,0.0,0.0,0.0,0.0,1
75,' C',1,1,1,6.3887612707,2.0998842815,0.0,0.0,0.0,0.0,1
75,' I',1,1,1,29.8142192634,9.7994599802,0.0,0.0,0.0,0.0,1
75,' P',1,1,1,6.3887612707,2.0998842815,0.0,0.0,0.0,0.0,1
76,' C',1,1,1,6.3887612707,2.0998842815,0.0,0.0,0.0,0.0,1
76,' I',1,1,1,29.8142192634,9.7994599802,0.0,0.0,0.0,0.0,1
76,' P',1,1,1,6.3887612707,2.0998842815,0.0,0.0,0.0,0.0,1
77,' C',1,1,1,6.3887612707,2.0998842815,0.0,0.0,0.0,0.0,1
77,' I',1,1,1,29.8142192634,9.7994599802,0.0,0.0,0.0,0.0,1
77,' P',1,1,1,6.3887612707,2.0998842815,0.0,0.0,0.0,0.0,1
78,' C',1,1,1,6.3887612707,2.0998842815,0.0,0.0,0.0,0.0,1
78,' I',1,1,1,29.8142192634,9.7994599802,0.0,0.0,0.0,0.0,1
78,' P',1,1,1,6.3887612707,2.0998842815,0.0,0.0,0.0,0.0,1
79,' C',1,1,1,6.3887612707,2.0998842815,0.0,0.0,0.0,0.0,1
79,' I',1,1,1,29.8142192634,9.7994599802,0.0,0.0,0.0,0.0,1
79,' P',1,1,1,6.3887612707,2.0998842815,0.0,0.0,0.0,0.0,1
80,' C',1,1,1,6.3887612707,2.0998842815,0.0,0.0,0.0,0.0,1
80,' I',1,1,1,29.8142192634,9.7994599802,0.0,0.0,0.0,0.0,1
80,' P',1,1,1,6.3887612707,2.0998842815,0.0,0.0,0.0,0.0,1
81,' C',1,1,1,6.3887612707,2.0998842815,0.0,0.0,0.0,0.0,1
81,' I',1,1,1,29.8142192634,9.7994599802,0.0,0.0,0.0,0.0,1
81,' P',1,1,1,6.3887612707,2.0998842815,0.0,0.0,0.0,0.0,1
82,' C',1,1,1,6.3887612707,2.0998842815,0.0,0.0,0.0,0.0,1
82,' I',1,1,1,29.8142192634,9.7994599802,0.0,0.0,0.0,0.0,1
82,' P',1,1,1,6.3887612707,2.0998842815,0.0,0.0,0.0,0.0,1
83,' C',1,1,1,3.1402522837,1.0321510119,0.0,0.0,0.0,0.0,1
83,' I',1,1,1,14.6545106572,4.8167047222,0.0,0.0,0.0,0.0,1
83,' P',1,1,1,3.1402522837,1.0321510119,0.0,0.0,0.0,0.0,1
84,' C',1,1,1,6.3887612707,2.0998842815,0.0,0.0,0.0,0.0,1
84,' I',1,1,1,29.8142192634,9.7994599802,0.0,0.0,0.0,0.0,1
84,' P',1,1,1,6.3887612707,2.0998842815,0.0,0.0,0.0,0.0,1
84,'PV',1,1,1,-12.7775225415,-4.1997685629,0.0,0.0,0.0,0.0,1
85,' C',1,1,1,3.1402522837,1.0321510119,0.0,0.0,0.0,0.0,1
85,' I',1,1,1,14.6545106572,4.8167047222,0.0,0.0,0.0,0.0,1
85,' P',1,1,1,3.1402522837,1.0321510119,0.0,0.0,0.0,0.0,1
86,' C',1,1,1,3.1402522837,1.0321510119,0.0,0.0,0.0,0.0,1
86,' I',1,1,1,14.6545106572,4.8167047222,0.0,0.0,0.0,0.0,1
86,' P',1,1,1,3.1402522837,1.0321510119,0.0,0.0,0.0,0.0,1
87,' C',1,1,1,3.1402522837,1.0321510119,0.0,0.0,0.0,0.0,1
87,' I',1,1,1,14.6545106572,4.8167047222,0.0,0.0,0.0,0.0,1
87,' P',1,1,1,3.1402522837,1.0321510119,0.0,0.0,0.0,0.0,1
87,'PV',1,1,1,-6.2805045674,-2.0643020238,0.0,0.0,0.0,0.0,1
88,' C',1,1,1,3.1402522837,1.0321510119,0.0,0.0,0.0,0.0,1
88,' I',1,1,1,14.6545106572,4.8167047222,0.0,0.0,0.0,0.0,1
88,' P',1,1,1,3.1402522837,1.0321510119,0.0,0.0,0.0,0.0,1
89,' C',1,1,1,3.1402522837,1.0321510119,0.0,0.0,0.0,0.0,1
89,' I',1,1,1,14.6545106572,4.8167047222,0.0,0.0,0.0,0.0,1
89,' P',1,1,1,3.1402522837,1.0321510119,0.0,0.0,0.0,0.0,1
90,' C',1,1,1,6.3887612707,2.0998842815,0.0,0.0,0.0,0.0,1
90,' I',1,1,1,29.8142192634,9.7994599802,0.0,0.0,0.0,0.0,1
90,' P',1,1,1,6.3887612707,2.0998842815,0.0,0.0,0.0,0.0,1
91,' C',1,1,1,3.1402522837,1.0321510119,0.0,0.0,0.0,0.0,1
91,' I',1,1,1,14.6545106572,4.8167047222,0.0,0.0,0.0,0.0,1
91,' P',1,1,1,3.1402522837,1.0321510119,0.0,0.0,0.0,0.0,1
92,' C',1,1,1,3.1402522837,1.0321510119,0.0,0.0,0.0,0.0,1
92,' I',1,1,1,14.6545106572,4.8167047222,0.0,0.0,0.0,0.0,1
92,' P',1,1,1,3.1402522837,1.0321510119,0.0,0.0,0.0,0.0,1
93,' C',1,1,1,6.3887612707,2.0998842815,0.0,0.0,0.0,0.0,1
93,' I',1,1,1,29.8142192634,9.7994599802,0.0,0.0,0.0,0.0,1
93,' P',1,1,1,6.3887612707,2.0998842815,0.0,0.0,0.0,0.0,1
94,' C',1,1,1,6.3887612707,2.0998842815,0.0,0.0,0.0,0.0,1
94,' I',1,1,1,29.8142192634,9.7994599802,0.0,0.0,0.0,0.0,1
94,' P',1,1,1,6.3887612707,2.0998842815,0.0,0.0,0.0,0.0,1
94,'PV',1,1,1,-12.7775225415,-4.1997685629,0.0,0.0,0.0,0.0,1
95,' C',1,1,1,6.3887612707,2.0998842815,0.0,0.0,0.0,0.0,1
95,' I',1,1,1,29.8142192634,9.7994599802,0.0,0.0,0.0,0.0,1
95,' P',1,1,1,6.3887612707,2.0998842815,0.0,0.0,0.0,0.0,1
96,' C',1,1,1,3.1402522837,1.0321510119,0.0,0.0,0.0,0.0,1
96,' I',1,1,1,14.6545106572,4.8167047222,0.0,0.0,0.0,0.0,1
96,' P',1,1,1,3.1402522837,1.0321510119,0.0,0.0,0.0,0.0,1
97,' C',1,1,1,1.6723237014,0.5496662194,0.0,0.0,0.0,0.0,1
97,' I',1,1,1,7.8041772731,2.5651090237,0.0,0.0,0.0,0.0,1
97,' P',1,1,1,1.6723237014,0.5496662194,0.0,0.0,0.0,0.0,1
98,' C',1,1,1,1.6723237014,0.5496662194,0.0,0.0,0.0,0.0,1
98,' I',1,1,1,7.8041772731,2.5651090237,0.0,0.0,0.0,0.0,1
98,' P',1,1,1,1.6723237014,0.5496662194,0.0,0.0,0.0,0.0,1
99,' C',1,1,1,1.6723237014,0.5496662194,0.0,0.0,0.0,0.0,1
99,' I',1,1,1,7.8041772731,2.5651090237,0.0,0.0,0.0,0.0,1
99,' P',1,1,1,1.6723237014,0.5496662194,0.0,0.0,0.0,0.0,1
100,' C',1,1,1,1.6723237014,0.5496662194,0.0,0.0,0.0,0.0,1
100,' I',1,1,1,7.8041772731,2.5651090237,0.0,0.0,0.0,0.0,1
100,' P',1,1,1,1.6723237014,0.5496662194,0.0,0.0,0.0,0.0,1
101,' C',1,1,1,0.5574412338,0.1832220731,0.0,0.0,0.0,0.0,1
101,' I',1,1,1,2.6013924244,0.8550363412,0.0,0.0,0.0,0.0,1
101,' P',1,1,1,0.5574412338,0.1832220731,0.0,0.0,0.0,0.0,1
102,' C',1,1,1,0.5574412338,0.1832220731,0.0,0.0,0.0,0.0,1
102,' I',1,1,1,2.6013924244,0.8550363412,0.0,0.0,0.0,0.0,1
102,' P',1,1,1,0.5574412338,0.1832220731,0.0,0.0,0.0,0.0,1
103,' C',1,1,1,1.6723237014,0.5496662194,0.0,0.0,0.0,0.0,1
103,' I',1,1,1,7.8041772731,2.5651090237,0.0,0.0,0.0,0.0,1
103,' P',1,1,1,1.6723237014,0.5496662194,0.0,0.0,0.0,0.0,1
104,' C',1,1,1,1.6723237014,0.5496662194,0.0,0.0,0.0,0.0,1
104,' I',1,1,1,7.8041772731,2.5651090237,0.0,0.0,0.0,0.0,1
104,' P',1,1,1,1.6723237014,0.5496662194,0.0,0.0,0.0,0.0,1
105,' C',1,1,1,1.6723237014,0.5496662194,0.0,0.0,0.0,0.0,1
105,' I',1,1,1,7.8041772731,2.5651090237,0.0,0.0,0.0,0.0,1
105,' P',1,1,1,1.6723237014,0.5496662194,0.0,0.0,0.0,0.0,1
106,' C',1,1,1,0.5574412338,0.1832220731,0.0,0.0,0.0,0.0,1
106,' I',1,1,1,2.6013924244,0.8550363412,0.0,0.0,0.0,0.0,1
106,' P',1,1,1,0.5574412338,0.1832220731,0.0,0.0,0.0,0.0,1
107,' C',1,1,1,1.6723237014,0.5496662194,0.0,0.0,0.0,0.0,1
107,' I',1,1,1,7.8041772731,2.5651090237,0.0,0.0,0.0,0.0,1
107,' P',1,1,1,1.6723237014,0.5496662194,0.0,0.0,0.0,0.0,1
108,' C',1,1,1,1.6723237014,0.5496662194,0.0,0.0,0.0,0.0,1
108,' I',1,1,1,7.8041772731,2.5651090237,0.0,0.0,0.0,0.0,1
108,' P',1,1,1,1.6723237014,0.5496662194,0.0,0.0,0.0,0.0,1
109,' C',1,1,1,0.5574412338,0.1832220731,0.0,0.0,0.0,0.0,1
109,' I',1,1,1,2.6013924244,0.8550363412,0.0,0.0,0.0,0.0,1
109,' P',1,1,1,0.5574412338,0.1832220731,0.0,0.0,0.0,0.0,1
110,' C',1,1,1,0.5574412338,0.1832220731,0.0,0.0,0.0,0.0,1
110,' I',1,1,1,2.6013924244,0.8550363412,0.0,0.0,0.0,0.0,1
110,' P',1,1,1,0.5574412338,0.1832220731,0.0,0.0,0.0,0.0,1
111,' C',1,1,1,0.5574412338,0.1832220731,0.0,0.0,0.0,0.0,1
111,' I',1,1,1,2.6013924244,0.8550363412,0.0,0.0,0.0,0.0,1
111,' P',1,1,1,0.5574412338,0.1832220731,0.0,0.0,0.0,0.0,1
112,' C',1,1,1,0.5574412338,0.1832220731,0.0,0.0,0.0,0.0,1
112,' I',1,1,1,2.6013924244,0.8550363412,0.0,0.0,0.0,0.0,1
112,' P',1,1,1,0.5574412338,0.1832220731,0.0,0.0,0.0,0.0,1
113,' C',1,1,1,1.6723237014,0.5496662194,0.0,0.0,0.0,0.0,1
113,' I',1,1,1,7.8041772731,2.5651090237,0.0,0.0,0.0,0.0,1
113,' P',1,1,1,1.6723237014,0.5496662194,0.0,0.0,0.0,0.0,1
114,' C',1,1,1,0.5574412338,0.1832220731,0.0,0.0,0.0,0.0,1
114,' I',1,1,1,2.6013924244,0.8550363412,0.0,0.0,0.0,0.0,1
114,' P',1,1,1,0.5574412338,0.1832220731,0.0,0.0,0.0,0.0,1
115,' C',1,1,1,0.5574412338,0.1832220731,0.0,0.0,0.0,0.0,1
115,' I',1,1,1,2.6013924244,0.8550363412,0.0,0.0,0.0,0.0,1
115,' P',1,1,1,0.5574412338,0.1832220731,0.0,0.0,0.0,0.0,1
116,' C',1,1,1,0.5574412338,0.1832220731,0.0,0.0,0.0,0.0,1
116,' I',1,1,1,2.6013924244,0.8550363412,0.0,0.0,0.0,0.0,1
116,' P',1,1,1,0.5574412338,0.1832220731,0.0,0.0,0.0,0.0,1
117,' C',1,1,1,1.6723237014,0.5496662194,0.0,0.0,0.0,0.0,1
117,' I',1,1,1,7.8041772731,2.5651090237,0.0,0.0,0.0,0.0,1
117,' P',1,1,1,1.6723237014,0.5496662194,0.0,0.0,0.0,0.0,1
118,' C',1,1,1,0.5574412338,0.1832220731,0.0,0.0,0.0,0.0,1
118,' I',1,1,1,2.6013924244,0.8550363412,0.0,0.0,0.0,0.0,1
118,' P',1,1,1,0.5574412338,0.1832220731,0.0,0.0,0.0,0.0,1
118,'PV',1,1,1,-1.1148824676,-0.3664441462,0.0,0.0,0.0,0.0,1
119,' C',1,1,1,0.5574412338,0.1832220731,0.0,0.0,0.0,0.0,1
119,' I',1,1,1,2.6013924244,0.8550363412,0.0,0.0,0.0,0.0,1
119,' P',1,1,1,0.5574412338,0.1832220731,0.0,0.0,0.0,0.0,1
120,' C',1,1,1,1.6723237014,0.5496662194,0.0,0.0,0.0,0.0,1
120,' I',1,1,1,7.8041772731,2.5651090237,0.0,0.0,0.0,0.0,1
120,' P',1,1,1,1.6723237014,0.5496662194,0.0,0.0,0.0,0.0,1
121,' C',1,1,1,1.6723237014,0.5496662194,0.0,0.0,0.0,0.0,1
121,' I',1,1,1,7.8041772731,2.5651090237,0.0,0.0,0.0,0.0,1
121,' P',1,1,1,1.6723237014,0.5496662194,0.0,0.0,0.0,0.0,1
121,'PV',1,1,1,-3.3446474027,-1.0993324387,0.0,0.0,0.0,0.0,1
122,' C',1,1,1,1.6723237014,0.5496662194,0.0,0.0,0.0,0.0,1
122,' I',1,1,1,7.8041772731,2.5651090237,0.0,0.0,0.0,0.0,1
122,' P',1,1,1,1.6723237014,0.5496662194,0.0,0.0,0.0,0.0,1
123,' C',1,1,1,0.5574412338,0.1832220731,0.0,0.0,0.0,0.0,1
123,' I',1,1,1,2.6013924244,0.8550363412,0.0,0.0,0.0,0.0,1
123,' P',1,1,1,0.5574412338,0.1832220731,0.0,0.0,0.0,0.0,1
124,' C',1,1,1,0.5574412338,0.1832220731,0.0,0.0,0.0,0.0,1
124,' I',1,1,1,2.6013924244,0.8550363412,0.0,0.0,0.0,0.0,1
124,' P',1,1,1,0.5574412338,0.1832220731,0.0,0.0,0.0,0.0,1
125,' C',1,1,1,0.5574412338,0.1832220731,0.0,0.0,0.0,0.0,1
125,' I',1,1,1,2.6013924244,0.8550363412,0.0,0.0,0.0,0.0,1
...
0 / END OF LOAD DATA, BEGIN GENERATOR DATA
30,' 1',96.69818356,34.2333546,1092.0,-1092.0,1.0234705593,0,100.0,0.0,0.0,0.0,0.0,1.0,1,100.0,1092.0,0.0,1,1.0,0,1.0,0,1.0,0,1.0
46,' 1',17.20861259,10.5034605,20.0,-20.0,0.9923675591,0,100.0,0.0,0.0,0.0,0.0,1.0,1,100.0,20.0,0.0,1,1.0,0,1.0,0,1.0,0,1.0
69,' 1',1104.52107811,-184.97224302,1358.0,-1358.0,0.9767665543,0,100.0,0.0,0.0,0.0,0.0,1.0,1,100.0,1358.0,0.0,1,1.0,0,1.0,0,1.0,0,1.0
93,' 1',2.64723324,-0.32898184,5.0,-5.0,0.9767666658,0,100.0,0.0,0.0,0.0,0.0,1.0,1,100.0,5.0,0.0,1,1.0,0,1.0,0,1.0,0,1.0
97,' 1',6.0739696,-2.95570978,11.0,-11.0,0.9687419213,0,100.0,0.0,0.0,0.0,0.0,1.0,1,100.0,11.0,0.0,1,1.0,0,1.0,0,1.0,0,1.0
273,' 1',3.576371,1.12433202,9.0,-9.0,1.0121454032,0,100.0,0.0,0.0,0.0,0.0,1.0,1,100.0,9.0,0.0,1,1.0,0,1.0,0,1.0,0,1.0
280,' 1',11.12072714,-0.7868912,18.0,-18.0,1.0109417258,0,100.0,0.0,0.0,0.0,0.0,1.0,1,100.0,18.0,0.0,1,1.0,0,1.0,0,1.0,0,1.0
352,' 1',394.25754804,352.11475938,454.0,-454.0,1.0121455783,0,100.0,0.0,0.0,0.0,0.0,1.0,1,100.0,454.0,0.0,1,1.0,0,1.0,0,1.0,0,1.0
361,' 1',20.10925119,15.573669,33.0,-33.0,1.0121454073,0,100.0,0.0,0.0,0.0,0.0,1.0,1,100.0,33.0,0.0,1,1.0,0,1.0,0,1.0,0,1.0
369,' 1',501.8856118,-34.53778584,640.0,-640.0,1.0121445087,0,100.0,0.0,0.0,0.0,0.0,1.0,1,100.0,640.0,0.0,1,1.0,0,1.0,0,1.0,0,1.0
379,' 1',136.41425681,-136.32496641,193.0,-193.0,0.9687417927,0,100.0,0.0,0.0,0.0,0.0,1.0,1,100.0,193.0,0.0,1,1.0,0,1.0,0,1.0,0,1.0
389,' 1',382.49007447,309.47891069,600.0,-600.0,1.0121465689,0,100.0,0.0,0.0,0.0,0.0,1.0,1,100.0,600.0,0.0,1,1.0,0,1.0,0,1.0,0,1.0
0 / END OF GENERATOR DATA, BEGIN BRANCH DATA
1,4,' 1',0.0365020007,0.2217726598,0.0822860313,227.0,272.4,326.88,0.0,0.0,0.0,0.0,1,1.0,0,1.0,0,1.0,0,1.0,0,1.0
2,3,' 1',0.008299945,0.0504273971,0.0187104686,227.0,272.4,326.88,0.0,0.0,0.0,0.0,1,1.0,0,1.0,0,1.0,0,1.0,0,1.0
2,8,' 1',0.006942542,0.0421803179,0.0156504908,227.0,272.4,326.88,0.0,0.0,0.0,0.0,1,1.0,0,1.0,0,1.0,0,1.0,0,1.0
2,8,'1A',0.006942542,0.0421803179,0.0156504908,227.0,272.4,326.88,0.0,0.0,0.0,0.0,1,1.0,0,1.0,0,1.0,0,1.0,0,1.0
2,25,' 1',0.0055727969,0.0338582537,0.0125626907,227.0,272.4,326.88,0.0,0.0,0.0,0.0,1,1.0,0,1.0,0,1.0,0,1.0,0,1.0
2,40,' 1',0.0043206717,0.0262508037,0.0097400394,227.0,272.4,326.88,0.0,0.0,0.0,0.0,1,1.0,0,1.0,0,1.0,0,1.0,0,1.0
2,40,'1A',0.0044347775,0.0269440681,0.0099972667,227.0,272.4,326.88,0.0,0.0,0.0,0.0,1,1.0,0,1.0,0,1.0,0,1.0,0,1.0
2,40,'1B',0.0044347775,0.0269440681,0.0099972667,227.0,272.4,326.88,0.0,0.0,0.0,0.0,1,1.0,0,1.0,0,1.0,0,1.0,0,1.0
2,49,' 1',0.010046956,0.0610415899,0.0226487349,227.0,272.4,326.88,0.0,0.0,0.0,0.0,1,1.0,0,1.0,0,1.0,0,1.0,0,1.0
3,36,' 1',0.0085378732,0.051872961,0.0192468273,227.0,272.4,326.88,0.0,0.0,0.0,0.0,1,1.0,0,1.0,0,1.0,0,1.0,0,1.0
4,5,' 1',0.0129466388,0.0786589905,0.0291854558,227.0,272.4,326.88,0.0,0.0,0.0,0.0,1,1.0,0,1.0,0,1.0,0,1.0,0,1.0
4,15,' 1',0.0141663657,0.0860696002,0.0319350718,227.0,272.4,326.88,0.0,0.0,0.0,0.0,1,1.0,0,1.0,0,1.0,0,1.0,0,1.0
5,6,' 1',0.0090684113,0.0550963138,0.020442813,227.0,272.4,326.88,0.0,0.0,0.0,0.0,1,1.0,0,1.0,0,1.0,0,1.0,0,1.0
5,15,' 1',0.0115174447,0.0699757355,0.0259636403,227.0,272.4,326.88,0.0,0.0,0.0,0.0,1,1.0,0,1.0,0,1.0,0,1.0,0,1.0
6,7,' 1',0.0065126072,0.0395681932,0.0146812938,227.0,272.4,326.88,0.0,0.0,0.0,0.0,1,1.0,0,1.0,0,1.0,0,1.0,0,1.0
7,12,' 1',0.0158646859,0.0963879658,0.0357635751,227.0,272.4,326.88,0.0,0.0,0.0,0.0,1,1.0,0,1.0,0,1.0,0,1.0,0,1.0
8,28,' 1',0.0044711104,0.0271648135,0.0100791716,227.0,272.4,326.88,0.0,0.0,0.0,0.0,1,1.0,0,1.0,0,1.0,0,1.0,0,1.0
8,44,' 1',0.0227951693,0.13849502,0.0513868823,227.0,272.4,326.88,0.0,0.0,0.0,0.0,1,1.0,0,1.0,0,1.0,0,1.0,0,1.0
9,8,' 1',0.0086627764,0.0526318261,0.019528395,227.0,272.4,326.88,0.0,0.0,0.0,0.0,1,1.0,0,1.0,0,1.0,0,1.0,0,1.0
9,8,'1A',0.0086361048,0.0524697796,0.0194682696,227.0,272.4,326.88,0.0,0.0,0.0,0.0,1,1.0,0,1.0,0,1.0,0,1.0,0,1.0
9,21,' 1',0.0047635568,0.0289416096,0.0107384301,227.0,272.4,326.88,0.0,0.0,0.0,0.0,1,1.0,0,1.0,0,1.0,0,1.0,0,1.0
10,9,' 1',0.0181638859,0.1103570548,0.0409466346,227.0,272.4,326.88,0.0,0.0,0.0,0.0,1,1.0,0,1.0,0,1.0,0,1.0,0,1.0
10,37,' 1',0.0072655544,0.0441428219,0.0163786538,227.0,272.4,326.88,0.0,0.0,0.0,0.0,1,1.0,0,1.0,0,1.0,0,1.0,0,1.0
11,14,' 1',0.0080700812,0.0490308297,0.0181922893,227.0,272.4,326.88,0.0,0.0,0.0,0.0,1,1.0,0,1.0,0,1.0,0,1.0,0,1.0
11,14,'1A',0.0080479987,0.0488966643,0.0181425089,227.0,272.4,326.88,0.0,0.0,0.0,0.0,1,1.0,0,1.0,0,1.0,0,1.0,0,1.0
12,16,' 1',0.0083615177,0.0508014901,0.0188492712,227.0,272.4,326.88,0.0,0.0,0.0,0.0,1,1.0,0,1.0,0,1.0,0,1.0,0,1.0
13,16,' 1',0.0215172187,0.1307306649,0.0485060133,227.0,272.4,326.88,0.0,0.0,0.0,0.0,1,1.0,0,1.0,0,1.0,0,1.0,0,1.0
14,13,' 1',0.0145311087,0.0882856438,0.0327573077,227.0,272.4,326.88,0.0,0.0,0.0,0.0,1,1.0,0,1.0,0,1.0,0,1.0,0,1.0
14,30,' 1',0.0302570295,0.1838305238,0.0682080661,227.0,272.4,326.88,0.0,0.0,0.0,0.0,1,1.0,0,1.0,0,1.0,0,1.0,0,1.0
14,34,' 1',0.0479096152,0.2910811073,0.1080020826,227.0,272.4,326.88,0.0,0.0,0.0,0.0,1,1.0,0,1.0,0,1.0,0,1.0,0,1.0
15,45,' 1',0.0124908185,0.0758895949,0.0281579054,227.0,272.4,326.88,0.0,0.0,0.0,0.0,1,1.0,0,1.0,0,1.0,0,1.0,0,1.0
16,1,' 1',0.0239117357,0.1452788647,0.0539039448,227.0,272.4,326.88,0.0,0.0,0.0,0.0,1,1.0,0,1.0,0,1.0,0,1.0,0,1.0
16,19,' 1',0.0000396811,0.0002410877,0.0000894526,227.0,272.4,326.88,0.0,0.0,0.0,0.0,1,1.0,0,1.0,0,1.0,0,1.0,0,1.0
16,45,' 1',0.0080603624,0.0489717815,0.0181703802,227.0,272.4,326.88,0.0,0.0,0.0,0.0,1,1.0,0,1.0,0,1.0,0,1.0,0,1.0
16,46,' 1',0.0042345135,0.0257273385,0.0095458141,227.0,272.4,326.88,0.0,0.0,0.0,0.0,1,1.0,0,1.0,0,1.0,0,1.0,0,1.0
17,8,' 1',0.0075449988,0.0458406228,0.0170086021,227.0,272.4,326.88,0.0,0.0,0.0,0.0,1,1.0,0,1.0,0,1.0,0,1.0,0,1.0
18,17,' 1',0.0184992192,0.1123944158,0.0417025725,227.0,272.4,326.88,0.0,0.0,0.0,0.0,1,1.0,0,1.0,0,1.0,0,1.0,0,1.0
19,18,' 1',0.0138045533,0.0838713616,0.0311194423,227.0,272.4,326.88,0.0,0.0,0.0,0.0,1,1.0,0,1.0,0,1.0,0,1.0,0,1.0
20,8,' 1',0.0069659597,0.0423225956,0.0157032811,227.0,272.4,326.88,0.0,0.0,0.0,0.0,1,1.0,0,1.0,0,1.0,0,1.0,0,1.0
20,47,' 1',0.0092612019,0.0562676387,0.0208774187,227.0,272.4,326.88,0.0,0.0,0.0,0.0,1,1.0,0,1.0,0,1.0,0,1.0,0,1.0
21,8,' 1',0.0102123016,0.0620461688,0.0230214716,227.0,272.4,326.88,0.0,0.0,0.0,0.0,1,1.0,0,1.0,0,1.0,0,1.0,0,1.0
22,8,' 1',0.0052289057,0.0317688976,0.0117874607,227.0,272.4,326.88,0.0,0.0,0.0,0.0,1,1.0,0,1.0,0,1.0,0,1.0,0,1.0
22,26,' 1',0.0013123328,0.0079732488,0.0029583764,227.0,272.4,326.88,0.0,0.0,0.0,0.0,1,1.0,0,1.0,0,1.0,0,1.0,0,1.0
23,22,' 1',0.0014714331,0.0089398837,0.0033170345,227.0,272.4,326.88,0.0,0.0,0.0,0.0,1,1.0,0,1.0,0,1.0,0,1.0,0,1.0
24,32,' 1',0.0022347215,0.0135773414,0.0050377064,227.0,272.4,326.88,0.0,0.0,0.0,0.0,1,1.0,0,1.0,0,1.0,0,1.0,0,1.0
25,22,' 1',0.0019131759,0.0116237497,0.0043128501,227.0,272.4,326.88,0.0,0.0,0.0,0.0,1,1.0,0,1.0,0,1.0,0,1.0,0,1.0
25,26,' 1',0.0033731781,0.0204941827,0.0076041157,227.0,272.4,326.88,0.0,0.0,0.0,0.0,1,1.0,0,1.0,0,1.0,0,1.0,0,1.0
26,20,' 1',0.0074581979,0.0453132528,0.0168129279,227.0,272.4,326.88,0.0,0.0,0.0,0.0,1,1.0,0,1.0,0,1.0,0,1.0,0,1.0
27,44,' 1',0.0079287048,0.0481718787,0.0178735861,227.0,272.4,326.88,0.0,0.0,0.0,0.0,1,1.0,0,1.0,0,1.0,0,1.0,0,1.0
28,29,' 1',0.0238645517,0.144992192,0.0537975784,227.0,272.4,326.88,0.0,0.0,0.0,0.0,1,1.0,0,1.0,0,1.0,0,1.0,0,1.0
29,27,' 1',0.0095251464,0.0578712679,0.0214724257,227.0,272.4,326.88,0.0,0.0,0.0,0.0,1,1.0,0,1.0,0,1.0,0,1.0,0,1.0
30,10,' 1',0.010225787,0.0621281011,0.0230518716,227.0,272.4,326.88,0.0,0.0,0.0,0.0,1,1.0,0,1.0,0,1.0,0,1.0,0,1.0
30,31,' 1',0.0241998849,0.147029553,0.0545535163,227.0,272.4,326.88,0.0,0.0,0.0,0.0,1,1.0,0,1.0,0,1.0,0,1.0,0,1.0
30,407,' 1',0.0,0.001,0.0,47.77,57.324,68.7888,0.0,0.0,0.0,0.0,1,1.0,0,1.0,0,1.0,0,1.0,0,1.0
31,48,' 1',0.0043034437,0.026146133,0.0097012027,227.0,272.4,326.88,0.0,0.0,0.0,0.0,1,1.0,0,1.0,0,1.0,0,1.0,0,1.0
32,33,' 1',0.0023473329,0.0142615271,0.0052915651,227.0,272.4,326.88,0.0,0.0,0.0,0.0,1,1.0,0,1.0,0,1.0,0,1.0,0,1.0
32,48,' 1',0.0042801965,0.0260048911,0.0096487966,227.0,272.4,326.88,0.0,0.0,0.0,0.0,1,1.0,0,1.0,0,1.0,0,1.0,0,1.0
33,44,' 1',0.008830443,0.0536505066,0.0199063639,227.0,272.4,326.88,0.0,0.0,0.0,0.0,1,1.0,0,1.0,0,1.0,0,1.0,0,1.0
35,12,' 1',0.0168058492,0.1021061257,0.0378852284,227.0,272.4,326.88,0.0,0.0,0.0,0.0,1,1.0,0,1.0,0,1.0,0,1.0,0,1.0
36,35,' 1',0.0044188555,0.026847332,0.009961374,227.0,272.4,326.88,0.0,0.0,0.0,0.0,1,1.0,0,1.0,0,1.0,0,1.0,0,1.0
37,38,' 1',0.0062595545,0.0380307389,0.0141108402,227.0,272.4,326.88,0.0,0.0,0.0,0.0,1,1.0,0,1.0,0,1.0,0,1.0,0,1.0
37,38,'1A',0.0079376186,0.0482260355,0.0178936803,227.0,272.4,326.88,0.0,0.0,0.0,0.0,1,1.0,0,1.0,0,1.0,0,1.0,0,1.0
37,43,' 1',0.0022514047,0.0136787026,0.0050753152,227.0,272.4,326.88,0.0,0.0,0.0,0.0,1,1.0,0,1.0,0,1.0,0,1.0,0,1.0
37,50,' 1',0.0027329662,0.0166044922,0.0061608936,227.0,272.4,326.88,0.0,0.0,0.0,0.0,1,1.0,0,1.0,0,1.0,0,1.0,0,1.0
38,21,' 1',0.011700818,0.0710898438,0.0263770165,227.0,272.4,326.88,0.0,0.0,0.0,0.0,1,1.0,0,1.0,0,1.0,0,1.0,0,1.0
39,9,' 1',0.0267148845,0.1623097606,0.0602230503,227.0,272.4,326.88,0.0,0.0,0.0,0.0,1,1.0,0,1.0,0,1.0,0,1.0,0,1.0
40,25,' 1',0.0039980459,0.0242906484,0.0090127478,227.0,272.4,326.88,0.0,0.0,0.0,0.0,1,1.0,0,1.0,0,1.0,0,1.0,0,1.0
41,42,' 1',0.0073566191,0.0446960974,0.01658394,227.0,272.4,326.88,0.0,0.0,0.0,0.0,1,1.0,0,1.0,0,1.0,0,1.0,0,1.0
41,49,' 1',0.0009049032,0.0054978572,0.0020399126,227.0,272.4,326.88,0.0,0.0,0.0,0.0,1,1.0,0,1.0,0,1.0,0,1.0,0,1.0
42,38,' 1',0.0036470445,0.0221580938,0.0082214895,227.0,272.4,326.88,0.0,0.0,0.0,0.0,1,1.0,0,1.0,0,1.0,0,1.0,0,1.0
43,10,' 1',0.0039904743,0.0242446463,0.0089956793,227.0,272.4,326.88,0.0,0.0,0.0,0.0,1,1.0,0,1.0,0,1.0,0,1.0,0,1.0
43,50,' 1',0.0001986914,0.0012071754,0.0004479077,227.0,272.4,326.88,0.0,0.0,0.0,0.0,1,1.0,0,1.0,0,1.0,0,1.0,0,1.0
51,52,' 1',0.0051127007,0.0397256847,0.2037708609,454.0,544.8,653.76,0.0,0.0,0.0,0.0,1,1.0,0,1.0,0,1.0,0,1.0,0,1.0
51,53,' 1',0.0038199758,0.0296812119,0.1522482533,454.0,544.8,653.76,0.0,0.0,0.0,0.0,1,1.0,0,1.0,0,1.0,0,1.0,0,1.0
52,57,' 1',0.0078967222,0.0613575312,0.3147303078,454.0,544.8,653.76,0.0,0.0,0.0,0.0,1,1.0,0,1.0,0,1.0,0,1.0,0,1.0
52,57,'1A',0.0078967222,0.0613575312,0.3147303078,454.0,544.8,653.76,0.0,0.0,0.0,0.0,1,1.0,0,1.0,0,1.0,0,1.0,0,1.0
54,51,' 1',0.0023613732,0.0183478694,0.0941144548,454.0,544.8,653.76,0.0,0.0,0.0,0.0,1,1.0,0,1.0,0,1.0,0,1.0,0,1.0
55,53,' 1',0.0050489502,0.0392303434,0.2012300331,454.0,544.8,653.76,0.0,0.0,0.0,0.0,1,1.0,0,1.0,0,1.0,0,1.0,0,1.0
57,58,' 1',0.0071648308,0.0556707349,0.285560178,454.0,544.8,653.76,0.0,0.0,0.0,0.0,1,1.0,0,1.0,0,1.0,0,1.0,0,1.0
57,59,' 1',0.0079566818,0.0618234178,0.3171200492,454.0,544.8,653.76,0.0,0.0,0.0,0.0,1,1.0,0,1.0,0,1.0,0,1.0,0,1.0
58,54,' 1',0.0060254918,0.0468180715,0.2401508952,454.0,544.8,653.76,0.0,0.0,0.0,0.0,1,1.0,0,1.0,0,1.0,0,1.0,0,1.0
61,51,' 1',0.0030417949,0.0236347466,0.1212332196,454.0,544.8,653.76,0.0,0.0,0.0,0.0,1,1.0,0,1.0,0,1.0,0,1.0,0,1.0
61,53,' 1',0.0068725267,0.0533995327,0.2739101629,454.0,544.8,653.76,0.0,0.0,0.0,0.0,1,1.0,0,1.0,0,1.0,0,1.0,0,1.0
61,60,' 1',0.00419075,0.0325621275,0.1670257618,454.0,544.8,653.76,0.0,0.0,0.0,0.0,1,1.0,0,1.0,0,1.0,0,1.0,0,1.0
63,70,' 1',0.0,0.000001,0.0,47.77,57.324,68.7888,0.0,0.0,0.0,0.0,1,1.0,0,1.0,0,1.0,0,1.0,0,1.0
63,98,' 1',0.0,0.000001,0.0,47.77,57.324,68.7888,0.0,0.0,0.0,0.0,1,1.0,0,1.0,0,1.0,0,1.0,0,1.0
64,100,' 1',0.3686170311,0.000001,0.0,47.77,57.324,68.7888,0.0,0.0,0.0,0.0,1,1.0,0,1.0,0,1.0,0,1.0,0,1.0
64,101,' 1',0.0,0.000001,0.0,47.77,57.324,68.7888,0.0,0.0,0.0,0.0,1,1.0,0,1.0,0,1.0,0,1.0,0,1.0
64,123,' 1',0.0916580949,0.000001,0.0,47.77,57.324,68.7888,0.0,0.0,0.0,0.0,1,1.0,0,1.0,0,1.0,0,1.0,0,1.0
64,159,' 1',0.0,0.000001,0.0,47.77,57.324,68.7888,0.0,0.0,0.0,0.0,1,1.0,0,1.0,0,1.0,0,1.0,0,1.0
64,187,' 1',0.0,0.000001,0.0,47.77,57.324,68.7888,0.0,0.0,0.0,0.0,1,1.0,0,1.0,0,1.0,0,1.0,0,1.0
64,251,' 1',0.0,0.000001,0.0,47.77,57.324,68.7888,0.0,0.0,0.0,0.0,1,1.0,0,1.0,0,1.0,0,1.0,0,1.0
65,87,' 1',0.0,0.000001,0.0,47.77,57.324,68.7888,0.0,0.0,0.0,0.0,1,1.0,0,1.0,0,1.0,0,1.0,0,1.0
65,114,' 1',0.0,0.000001,0.0,47.77,57.324,68.7888,0.0,0.0,0.0,0.0,1,1.0,0,1.0,0,1.0,0,1.0,0,1.0
65,115,' 1',0.0,0.000001,0.0,47.77,57.324,68.7888,0.0,0.0,0.0,0.0,1,1.0,0,1.0,0,1.0,0,1.0,0,1.0
65,116,' 1',0.0,0.000001,0.0,47.77,57.324,68.7888,0.0,0.0,0.0,0.0,1,1.0,0,1.0,0,1.0,0,1.0,0,1.0
65,117,' 1',0.0,0.000001,0.0,47.77,57.324,68.7888,0.0,0.0,0.0,0.0,1,1.0,0,1.0,0,1.0,0,1.0,0,1.0
65,118,' 1',0.0,0.000001,0.0,47.77,57.324,68.7888,0.0,0.0,0.0,0.0,1,1.0,0,1.0,0,1.0,0,1.0,0,1.0
65,147,' 1',0.0,0.000001,0.0,47.77,57.324,68.7888,0.0,0.0,0.0,0.0,1,1.0,0,1.0,0,1.0,0,1.0,0,1.0
65,157,' 1',0.0,0.000001,0.0,47.77,57.324,68.7888,0.0,0.0,0.0,0.0,1,1.0,0,1.0,0,1.0,0,1.0,0,1.0
65,158,' 1',0.0,0.000001,0.0,47.77,57.324,68.7888,0.0,0.0,0.0,0.0,1,1.0,0,1.0,0,1.0,0,1.0,0,1.0
65,160,' 1',0.0,0.000001,0.0,47.77,57.324,68.7888,0.0,0.0,0.0,0.0,1,1.0,0,1.0,0,1.0,0,1.0,0,1.0
65,192,' 1',0.0,0.000001,0.0,47.77,57.324,68.7888,0.0,0.0,0.0,0.0,1,1.0,0,1.0,0,1.0,0,1.0,0,1.0
65,201,' 1',0.0,0.000001,0.0,47.77,57.324,68.7888,0.0,0.0,0.0,0.0,1,1.0,0,1.0,0,1.0,0,1.0,0,1.0
65,206,' 1',0.0,0.000001,0.0,47.77,57.324,68.7888,0.0,0.0,0.0,0.0,1,1.0,0,1.0,0,1.0,0,1.0,0,1.0
65,211,' 1',0.0,0.000001,0.0,47.77,57.324,68.7888,0.0,0.0,0.0,0.0,1,1.0,0,1.0,0,1.0,0,1.0,0,1.0
65,224,' 1',0.0,0.000001,0.0,47.77,57.324,68.7888,0.0,0.0,0.0,0.0,1,1.0,0,1.0,0,1.0,0,1.0,0,1.0
65,271,' 1',0.0,0.000001,0.0,47.77,57.324,68.7888,0.0,0.0,0.0,0.0,1,1.0,0,1.0,0,1.0,0,1.0,0,1.0
65,273,' 1',0.0,0.000001,0.0,47.77,57.324,68.7888,0.0,0.0,0.0,0.0,1,1.0,0,1.0,0,1.0,0,1.0,0,1.0
65,279,' 1',0.0,0.000001,0.0,47.77,57.324,68.7888,0.0,0.0,0.0,0.0,1,1.0,0,1.0,0,1.0,0,1.0,0,1.0
65,292,' 1',0.0,0.000001,0.0,47.77,57.324,68.7888,0.0,0.0,0.0,0.0,1,1.0,0,1.0,0,1.0,0,1.0,0,1.0
65,295,' 1',0.0,0.000001,0.0,47.77,57.324,68.7888,0.0,0.0,0.0,0.0,1,1.0,0,1.0,0,1.0,0,1.0,0,1.0
65,297,' 1',0.0,0.000001,0.0,47.77,57.324,68.7888,0.0,0.0,0.0,0.0,1,1.0,0,1.0,0,1.0,0,1.0,0,1.0
65,298,' 1',0.0,0.000001,0.0,47.77,57.324,68.7888,0.0,0.0,0.0,0.0,1,1.0,0,1.0,0,1.0,0,1.0,0,1.0
65,336,' 1',0.0,0.000001,0.0,47.77,57.324,68.7888,0.0,0.0,0.0,0.0,1,1.0,0,1.0,0,1.0,0,1.0,0,1.0
65,341,' 1',0.0,0.000001,0.0,47.77,57.324,68.7888,0.0,0.0,0.0,0.0,1,1.0,0,1.0,0,1.0,0,1.0,0,1.0
65,350,' 1',0.0,0.000001,0.0,47.77,57.324,68.7888,0.0,0.0,0.0,0.0,1,1.0,0,1.0,0,1.0,0,1.0,0,1.0
66,164,' 1',0.0,0.000001,0.0,47.77,57.324,68.7888,0.0,0.0,0.0,0.0,1,1.0,0,1.0,0,1.0,0,1.0,0,1.0
67,118,' 1',0.0,0.000001,0.0,47.77,57.324,68.7888,0.0,0.0,0.0,0.0,1,1.0,0,1.0,0,1.0,0,1.0,0,1.0
68,69,' 1',0.0,0.000001,0.0,47.77,57.324,68.7888,0.0,0.0,0.0,0.0,1,1.0,0,1.0,0,1.0,0,1.0,0,1.0
68,93,' 1',0.0,0.000001,0.0,47.77,57.324,68.7888,0.0,0.0,0.0,0.0,1,1.0,0,1.0,0,1.0,0,1.0,0,1.0
68,333,' 1',0.0,0.000001,0.0,47.77,57.324,68.7888,0.0,0.0,0.0,0.0,1,1.0,0,1.0,0,1.0,0,1.0,0,1.0
69,408,' 1',0.0060254918,0.0468180715,0.2401508952,454.0,544.8,653.76,0.0,0.0,0.0,0.0,1,1.0,0,1.0,0,1.0,0,1.0,0,1.0
70,98,' 1',0.0,0.000001,0.0,47.77,57.324,68.7888,0.0,0.0,0.0,0.0,1,1.0,0,1.0,0,1.0,0,1.0,0,1.0
71,129,' 1',0.0,0.000001,0.0,47.77,57.324,68.7888,0.0,0.0,0.0,0.0,1,1.0,0,1.0,0,1.0,0,1.0,0,1.0
72,178,' 1',0.0,0.000001,0.0,47.77,57.324,68.7888,0.0,0.0,0.0,0.0,1,1.0,0,1.0,0,1.0,0,1.0,0,1.0
72,184,' 1',0.0,0.000001,0.0,47.77,57.324,68.7888,0.0,0.0,0.0,0.0,1,1.0,0,1.0,0,1.0,0,1.0,0,1.0
73,138,' 1',0.0,0.000001,0.0,47.77,57.324,68.7888,0.0,0.0,0.0,0.0,1,1.0,0,1.0,0,1.0,0,1.0,0,1.0
73,193,' 1',0.0,0.000001,0.0,47.77,57.324,68.7888,0.0,0.0,0.0,0.0,1,1.0,0,1.0,0,1.0,0,1.0,0,1.0
73,200,' 1',0.0,0.000001,0.0,47.77,57.324,68.7888,0.0,0.0,0.0,0.0,1,1.0,0,1.0,0,1.0,0,1.0,0,1.0
73,250,' 1',0.0,0.000001,0.0,47.77,57.324,68.7888,0.0,0.0,0.0,0.0,1,1.0,0,1.0,0,1.0,0,1.0,0,1.0
77,171,' 1',0.0,0.000001,0.0,47.77,57.324,68.7888,0.0,0.0,0.0,0.0,1,1.0,0,1.0,0,1.0,0,1.0,0,1.0
77,204,' 1',0.0,0.000001,0.0,47.77,57.324,68.7888,0.0,0.0,0.0,0.0,1,1.0,0,1.0,0,1.0,0,1.0,0,1.0
77,217,' 1',0.0,0.000001,0.0,47.77,57.324,68.7888,0.0,0.0,0.0,0.0,1,1.0,0,1.0,0,1.0,0,1.0,0,1.0
77,218,' 1',0.0,0.000001,0.0,47.77,57.324,68.7888,0.0,0.0,0.0,0.0,1,1.0,0,1.0,0,1.0,0,1.0,0,1.0
77,238,' 1',0.0,0.000001,0.0,47.77,57.324,68.7888,0.0,0.0,0.0,0.0,1,1.0,0,1.0,0,1.0,0,1.0,0,1.0
77,239,' 1',0.0,0.000001,0.0,47.77,57.324,68.7888,0.0,0.0,0.0,0.0,1,1.0,0,1.0,0,1.0,0,1.0,0,1.0
77,240,' 1',0.0,0.000001,0.0,47.77,57.324,68.7888,0.0,0.0,0.0,0.0,1,1.0,0,1.0,0,1.0,0,1.0,0,1.0
79,68,' 1',0.0,0.000001,0.0,47.77,57.324,68.7888,0.0,0.0,0.0,0.0,1,1.0,0,1.0,0,1.0,0,1.0,0,1.0
79,69,' 1',0.000001,0.000001,0.0,47.77,57.324,68.7888,0.0,0.0,0.0,0.0,1,1.0,0,1.0,0,1.0,0,1.0,0,1.0
79,93,' 1',0.0,0.000001,0.0,47.77,57.324,68.7888,0.0,0.0,0.0,0.0,1,1.0,0,1.0,0,1.0,0,1.0,0,1.0
79,333,' 1',0.0,0.000001,0.0,47.77,57.324,68.7888,0.0,0.0,0.0,0.0,1,1.0,0,1.0,0,1.0,0,1.0,0,1.0
80,119,' 1',0.0,0.000001,0.0,47.77,57.324,68.7888,0.0,0.0,0.0,0.0,1,1.0,0,1.0,0,1.0,0,1.0,0,1.0
80,120,' 1',0.0,0.000001,0.0,47.77,57.324,68.7888,0.0,0.0,0.0,0.0,1,1.0,0,1.0,0,1.0,0,1.0,0,1.0
80,191,' 1',0.0,0.000001,0.0,47.77,57.324,68.7888,0.0,0.0,0.0,0.0,1,1.0,0,1.0,0,1.0,0,1.0,0,1.0
80,221,' 1',0.0,0.000001,0.0,47.77,57.324,68.7888,0.0,0.0,0.0,0.0,1,1.0,0,1.0,0,1.0,0,1.0,0,1.0
81,122,' 1',0.0,0.000001,0.0,47.77,57.324,68.7888,0.0,0.0,0.0,0.0,1,1.0,0,1.0,0,1.0,0,1.0,0,1.0
81,125,' 1',0.0,0.000001,0.0,47.77,57.324,68.7888,0.0,0.0,0.0,0.0,1,1.0,0,1.0,0,1.0,0,1.0,0,1.0
81,127,' 1',0.0,0.000001,0.0,47.77,57.324,68.7888,0.0,0.0,0.0,0.0,1,1.0,0,1.0,0,1.0,0,1.0,0,1.0
81,131,' 1',0.0,0.000001,0.0,47.77,57.324,68.7888,0.0,0.0,0.0,0.0,1,1.0,0,1.0,0,1.0,0,1.0,0,1.0
81,160,' 1',0.0,0.000001,0.0,47.77,57.324,68.7888,0.0,0.0,0.0,0.0,1,1.0,0,1.0,0,1.0,0,1.0,0,1.0
81,170,' 1',0.0,0.000001,0.0,47.77,57.324,68.7888,0.0,0.0,0.0,0.0,1,1.0,0,1.0,0,1.0,0,1.0,0,1.0
82,91,' 1',0.0,0.000001,0.0,47.77,57.324,68.7888,0.0,0.0,0.0,0.0,1,1.0,0,1.0,0,1.0,0,1.0,0,1.0
83,64,' 1',0.0,0.000001,0.0,47.77,57.324,68.7888,0.0,0.0,0.0,0.0,1,1.0,0,1.0,0,1.0,0,1.0,0,1.0
83,100,' 1',0.0,0.000001,0.0,47.77,57.324,68.7888,0.0,0.0,0.0,0.0,1,1.0,0,1.0,0,1.0,0,1.0,0,1.0
83,101,' 1',0.0,0.000001,0.0,47.77,57.324,68.7888,0.0,0.0,0.0,0.0,1,1.0,0,1.0,0,1.0,0,1.0,0,1.0
83,123,' 1',0.0,0.000001,0.0,47.77,57.324,68.7888,0.0,0.0,0.0,0.0,1,1.0,0,1.0,0,1.0,0,1.0,0,1.0
83,159,' 1',0.0,0.000001,0.0,47.77,57.324,68.7888,0.0,0.0,0.0,0.0,1,1.0,0,1.0,0,1.0,0,1.0,0,1.0
83,187,' 1',0.0,0.000001,0.0,47.77,57.324,68.7888,0.0,0.0,0.0,0.0,1,1.0,0,1.0,0,1.0,0,1.0,0,1.0
83,251,' 1',0.0,0.000001,0.0,47.77,57.324,68.7888,0.0,0.0,0.0,0.0,1,1.0,0,1.0,0,1.0,0,1.0,0,1.0
83,267,' 1',0.0,0.000001,0.0,47.77,57.324,68.7888,0.0,0.0,0.0,0.0,1,1.0,0,1.0,0,1.0,0,1.0,0,1.0
83,272,' 1',0.7135032916,0.000001,0.0,47.77,57.324,68.7888,0.0,0.0,0.0,0.0,1,1.0,0,1.0,0,1.0,0,1.0,0,1.0
84,71,' 1',0.0,0.000001,0.0,47.77,57.324,68.7888,0.0,0.0,0.0,0.0,1,1.0,0,1.0,0,1.0,0,1.0,0,1.0
84,129,' 1',0.0,0.000001,0.0,47.77,57.324,68.7888,0.0,0.0,0.0,0.0,1,1.0,0,1.0,0,1.0,0,1.0,0,1.0
84,133,' 1',0.0,0.000001,0.0,47.77,57.324,68.7888,0.0,0.0,0.0,0.0,1,1.0,0,1.0,0,1.0,0,1.0,0,1.0
84,146,' 1',0.0,0.000001,0.0,47.77,57.324,68.7888,0.0,0.0,0.0,0.0,1,1.0,0,1.0,0,1.0,0,1.0,0,1.0
84,148,' 1',0.0,0.000001,0.0,47.77,57.324,68.7888,0.0,0.0,0.0,0.0,1,1.0,0,1.0,0,1.0,0,1.0,0,1.0
84,149,' 1',0.0,0.000001,0.0,47.77,57.324,68.7888,0.0,0.0,0.0,0.0,1,1.0,0,1.0,0,1.0,0,1.0,0,1.0
84,154,' 1',0.0,0.000001,0.0,47.77,57.324,68.7888,0.0,0.0,0.0,0.0,1,1.0,0,1.0,0,1.0,0,1.0,0,1.0
85,71,' 1',0.0,0.000001,0.0,47.77,57.324,68.7888,0.0,0.0,0.0,0.0,1,1.0,0,1.0,0,1.0,0,1.0,0,1.0
85,84,' 1',0.0,0.000001,0.0,47.77,57.324,68.7888,0.0,0.0,0.0,0.0,1,1.0,0,1.0,0,1.0,0,1.0,0,1.0
85,129,' 1',0.0,0.000001,0.0,47.77,57.324,68.7888,0.0,0.0,0.0,0.0,1,1.0,0,1.0,0,1.0,0,1.0,0,1.0
85,133,' 1',0.0,0.000001,0.0,47.77,57.324,68.7888,0.0,0.0,0.0,0.0,1,1.0,0,1.0,0,1.0,0,1.0,0,1.0
85,146,' 1',0.0,0.000001,0.0,47.77,57.324,68.7888,0.0,0.0,0.0,0.0,1,1.0,0,1.0,0,1.0,0,1.0,0,1.0
85,148,' 1',0.6911238265,0.000001,0.0,47.77,57.324,68.7888,0.0,0.0,0.0,0.0,1,1.0,0,1.0,0,1.0,0,1.0,0,1.0
85,149,' 1',0.0,0.000001,0.0,47.77,57.324,68.7888,0.0,0.0,0.0,0.0,1,1.0,0,1.0,0,1.0,0,1.0,0,1.0
85,154,' 1',0.0,0.000001,0.0,47.77,57.324,68.7888,0.0,0.0,0.0,0.0,1,1.0,0,1.0,0,1.0,0,1.0,0,1.0
86,213,' 1',0.0000008333,0.000001,0.0,47.77,57.324,68.7888,0.0,0.0,0.0,0.0,1,1.0,0,1.0,0,1.0,0,1.0,0,1.0
87,114,' 1',0.0,0.000001,0.0,47.77,57.324,68.7888,0.0,0.0,0.0,0.0,1,1.0,0,1.0,0,1.0,0,1.0,0,1.0
87,115,' 1',0.0,0.000001,0.0,47.77,57.324,68.7888,0.0,0.0,0.0,0.0,1,1.0,0,1.0,0,1.0,0,1.0,0,1.0
87,116,' 1',0.0,0.000001,0.0,47.77,57.324,68.7888,0.0,0.0,0.0,0.0,1,1.0,0,1.0,0,1.0,0,1.0,0,1.0
87,117,' 1',0.0,0.000001,0.0,47.77,57.324,68.7888,0.0,0.0,0.0,0.0,1,1.0,0,1.0,0,1.0,0,1.0,0,1.0
87,118,' 1',0.0,0.000001,0.0,47.77,57.324,68.7888,0.0,0.0,0.0,0.0,1,1.0,0,1.0,0,1.0,0,1.0,0,1.0
88,214,' 1',0.0,0.000001,0.0,47.77,57.324,68.7888,0.0,0.0,0.0,0.0,1,1.0,0,1.0,0,1.0,0,1.0,0,1.0
89,65,' 1',0.0,0.000001,0.0,47.77,57.324,68.7888,0.0,0.0,0.0,0.0,1,1.0,0,1.0,0,1.0,0,1.0,0,1.0
89,87,' 1',0.0,0.000001,0.0,47.77,57.324,68.7888,0.0,0.0,0.0,0.0,1,1.0,0,1.0,0,1.0,0,1.0,0,1.0
89,114,' 1',0.0,0.000001,0.0,47.77,57.324,68.7888,0.0,0.0,0.0,0.0,1,1.0,0,1.0,0,1.0,0,1.0,0,1.0
89,115,' 1',0.0,0.000001,0.0,47.77,57.324,68.7888,0.0,0.0,0.0,0.0,1,1.0,0,1.0,0,1.0,0,1.0,0,1.0
89,116,' 1',0.0,0.000001,0.0,47.77,57.324,68.7888,0.0,0.0,0.0,0.0,1,1.0,0,1.0,0,1.0,0,1.0,0,1.0
89,117,' 1',0.0,0.000001,0.0,47.77,57.324,68.7888,0.0,0.0,0.0,0.0,1,1.0,0,1.0,0,1.0,0,1.0,0,1.0
89,118,' 1',0.0,0.000001,0.0,47.77,57.324,68.7888,0.0,0.0,0.0,0.0,1,1.0,0,1.0,0,1.0,0,1.0,0,1.0
89,147,' 1',0.0,0.000001,0.0,47.77,57.324,68.7888,0.0,0.0,0.0,0.0,1,1.0,0,1.0,0,1.0,0,1.0,0,1.0
89,157,' 1',0.0,0.000001,0.0,47.77,57.324,68.7888,0.0,0.0,0.0,0.0,1,1.0,0,1.0,0,1.0,0,1.0,0,1.0
89,158,' 1',0.0,0.000001,0.0,47.77,57.324,68.7888,0.0,0.0,0.0,0.0,1,1.0,0,1.0,0,1.0,0,1.0,0,1.0
89,160,' 1',0.0,0.000001,0.0,47.77,57.324,68.7888,0.0,0.0,0.0,0.0,1,1.0,0,1.0,0,1.0,0,1.0,0,1.0
89,192,' 1',0.0,0.000001,0.0,47.77,57.324,68.7888,0.0,0.0,0.0,0.0,1,1.0,0,1.0,0,1.0,0,1.0,0,1.0
89,201,' 1',0.0,0.000001,0.0,47.77,57.324,68.7888,0.0,0.0,0.0,0.0,1,1.0,0,1.0,0,1.0,0,1.0,0,1.0
89,206,' 1',0.0,0.000001,0.0,47.77,57.324,68.7888,0.0,0.0,0.0,0.0,1,1.0,0,1.0,0,1.0,0,1.0,0,1.0
89,211,' 1',0.0,0.000001,0.0,47.77,57.324,68.7888,0.0,0.0,0.0,0.0,1,1.0,0,1.0,0,1.0,0,1.0,0,1.0
89,224,' 1',0.0,0.000001,0.0,47.77,57.324,68.7888,0.0,0.0,0.0,0.0,1,1.0,0,1.0,0,1.0,0,1.0,0,1.0
...
0 / END OF BRANCH DATA, BEGIN TRANSFORMER DATA
1,69,0,' 1',1,1,1,0.0,0.0,2,'            ',1,0,1.0,0,1.0,0,1.0,0,1.0
0.0061,0.04956,100.0,
1.0,0.0,0.0,350.0,420.0,504.0,0,1,1.5,0.5,1.5,1.5,33,0,0.0,0.0
1.0,0.0
2,65,0,' 1',1,1,1,0.0,0.0,2,'            ',1,0,1.0,0,1.0,0,1.0,0,1.0
0.0061,0.04956,100.0,
1.0,0.0,0.0,350.0,420.0,504.0,0,1,1.5,0.5,1.5,1.5,33,0,0.0,0.0
1.0,0.0
3,90,0,' 1',1,1,1,0.0,0.0,2,'            ',1,0,1.0,0,1.0,0,1.0,0,1.0
0.0061,0.04956,100.0,
1.0,0.0,0.0,350.0,420.0,504.0,0,1,1.5,0.5,1.5,1.5,33,0,0.0,0.0
1.0,0.0
5,83,0,' 1',1,1,1,0.0,0.0,2,'            ',1,0,1.0,0,1.0,0,1.0,0,1.0
0.0061,0.04956,100.0,
1.0,0.0,0.0,350.0,420.0,504.0,0,1,1.5,0.5,1.5,1.5,33,0,0.0,0.0
1.0,0.0
6,89,0,' 1',1,1,1,0.0,0.0,2,'            ',1,0,1.0,0,1.0,0,1.0,0,1.0
0.0061,0.04956,100.0,
1.0,0.0,0.0,350.0,420.0,504.0,0,1,1.5,0.5,1.5,1.5,33,0,0.0,0.0
1.0,0.0
7,88,0,' 1',1,1,1,0.0,0.0,2,'            ',1,0,1.0,0,1.0,0,1.0,0,1.0
0.0061,0.04956,100.0,
1.0,0.0,0.0,350.0,420.0,504.0,0,1,1.5,0.5,1.5,1.5,33,0,0.0,0.0
1.0,0.0
8,76,0,' 1',1,1,1,0.0,0.0,2,'            ',1,0,1.0,0,1.0,0,1.0,0,1.0
0.0061,0.04956,100.0,
1.0,0.0,0.0,350.0,420.0,504.0,0,1,1.5,0.5,1.5,1.5,33,0,0.0,0.0
1.0,0.0
9,62,0,' 1',1,1,1,0.0,0.0,2,'            ',1,0,1.0,0,1.0,0,1.0,0,1.0
0.0061,0.04956,100.0,
1.0,0.0,0.0,350.0,420.0,504.0,0,1,1.5,0.5,1.5,1.5,33,0,0.0,0.0
1.0,0.0
11,72,0,' 1',1,1,1,0.0,0.0,2,'            ',1,0,1.0,0,1.0,0,1.0,0,1.0
0.0061,0.04956,100.0,
1.0,0.0,0.0,350.0,420.0,504.0,0,1,1.5,0.5,1.5,1.5,33,0,0.0,0.0
1.0,0.0
12,64,0,' 1',1,1,1,0.0,0.0,2,'            ',1,0,1.0,0,1.0,0,1.0,0,1.0
0.0061,0.04956,100.0,
1.0,0.0,0.0,350.0,420.0,504.0,0,1,1.5,0.5,1.5,1.5,33,0,0.0,0.0
1.0,0.0
13,86,0,' 1',1,1,1,0.0,0.0,2,'            ',1,0,1.0,0,1.0,0,1.0,0,1.0
0.0061,0.04956,100.0,
1.0,0.0,0.0,350.0,420.0,504.0,0,1,1.5,0.5,1.5,1.5,33,0,0.0,0.0
1.0,0.0
15,91,0,' 1',1,1,1,0.0,0.0,2,'            ',1,0,1.0,0,1.0,0,1.0,0,1.0
0.0061,0.04956,100.0,
1.0,0.0,0.0,350.0,420.0,504.0,0,1,1.5,0.5,1.5,1.5,33,0,0.0,0.0
1.0,0.0
16,71,0,' 1',1,1,1,0.0,0.0,2,'            ',1,0,1.0,0,1.0,0,1.0,0,1.0
0.0061,0.04956,100.0,
1.0,0.0,0.0,350.0,420.0,504.0,0,1,1.5,0.5,1.5,1.5,33,0,0.0,0.0
1.0,0.0
17,94,0,' 1',1,1,1,0.0,0.0,2,'            ',1,0,1.0,0,1.0,0,1.0,0,1.0
0.0061,0.04956,100.0,
1.0,0.0,0.0,350.0,420.0,504.0,0,1,1.5,0.5,1.5,1.5,33,0,0.0,0.0
1.0,0.0
19,71,0,' 1',1,1,1,0.0,0.0,2,'            ',1,0,1.0,0,1.0,0,1.0,0,1.0
0.0061,0.04956,100.0,
1.0,0.0,0.0,350.0,420.0,504.0,0,1,1.5,0.5,1.5,1.5,33,0,0.0,0.0
1.0,0.0
20,81,0,' 1',1,1,1,0.0,0.0,2,'            ',1,0,1.0,0,1.0,0,1.0,0,1.0
0.0061,0.04956,100.0,
1.0,0.0,0.0,350.0,420.0,504.0,0,1,1.5,0.5,1.5,1.5,33,0,0.0,0.0
1.0,0.0
21,93,0,' 1',1,1,1,0.0,0.0,2,'            ',1,0,1.0,0,1.0,0,1.0,0,1.0
0.0061,0.04956,100.0,
1.0,0.0,0.0,350.0,420.0,504.0,0,1,1.5,0.5,1.5,1.5,33,0,0.0,0.0
1.0,0.0
22,82,0,' 1',1,1,1,0.0,0.0,2,'            ',1,0,1.0,0,1.0,0,1.0,0,1.0
0.0061,0.04956,100.0,
1.0,0.0,0.0,350.0,420.0,504.0,0,1,1.5,0.5,1.5,1.5,33,0,0.0,0.0
1.0,0.0
24,87,0,' 1',1,1,1,0.0,0.0,2,'            ',1,0,1.0,0,1.0,0,1.0,0,1.0
0.0061,0.04956,100.0,
1.0,0.0,0.0,350.0,420.0,504.0,0,1,1.5,0.5,1.5,1.5,33,0,0.0,0.0
1.0,0.0
25,82,0,' 1',1,1,1,0.0,0.0,2,'            ',1,0,1.0,0,1.0,0,1.0,0,1.0
0.0061,0.04956,100.0,
1.0,0.0,0.0,350.0,420.0,504.0,0,1,1.5,0.5,1.5,1.5,33,0,0.0,0.0
1.0,0.0
26,74,0,' 1',1,1,1,0.0,0.0,2,'            ',1,0,1.0,0,1.0,0,1.0,0,1.0
0.0061,0.04956,100.0,
1.0,0.0,0.0,350.0,420.0,504.0,0,1,1.5,0.5,1.5,1.5,33,0,0.0,0.0
1.0,0.0
27,70,0,' 1',1,1,1,0.0,0.0,2,'            ',1,0,1.0,0,1.0,0,1.0,0,1.0
0.0061,0.04956,100.0,
1.0,0.0,0.0,350.0,420.0,504.0,0,1,1.5,0.5,1.5,1.5,33,0,0.0,0.0
1.0,0.0
29,73,0,' 1',1,1,1,0.0,0.0,2,'            ',1,0,1.0,0,1.0,0,1.0,0,1.0
0.0061,0.04956,100.0,
1.0,0.0,0.0,350.0,420.0,504.0,0,1,1.5,0.5,1.5,1.5,33,0,0.0,0.0
1.0,0.0
30,63,0,' 1',1,1,1,0.0,0.0,2,'            ',1,0,1.0,0,1.0,0,1.0,0,1.0
0.0061,0.04956,100.0,
1.0,0.0,0.0,350.0,420.0,504.0,0,1,1.5,0.5,1.5,1.5,33,0,0.0,0.0
1.0,0.0
31,85,0,' 1',1,1,1,0.0,0.0,2,'            ',1,0,1.0,0,1.0,0,1.0,0,1.0
0.0061,0.04956,100.0,
1.0,0.0,0.0,350.0,420.0,504.0,0,1,1.5,0.5,1.5,1.5,33,0,0.0,0.0
1.0,0.0
32,87,0,' 1',1,1,1,0.0,0.0,2,'            ',1,0,1.0,0,1.0,0,1.0,0,1.0
0.0061,0.04956,100.0,
1.0,0.0,0.0,350.0,420.0,504.0,0,1,1.5,0.5,1.5,1.5,33,0,0.0,0.0
1.0,0.0
33,75,0,' 1',1,1,1,0.0,0.0,2,'            ',1,0,1.0,0,1.0,0,1.0,0,1.0
0.0061,0.04956,100.0,
1.0,0.0,0.0,350.0,420.0,504.0,0,1,1.5,0.5,1.5,1.5,33,0,0.0,0.0
1.0,0.0
34,78,0,' 1',1,1,1,0.0,0.0,2,'            ',1,0,1.0,0,1.0,0,1.0,0,1.0
0.0061,0.04956,100.0,
1.0,0.0,0.0,350.0,420.0,504.0,0,1,1.5,0.5,1.5,1.5,33,0,0.0,0.0
1.0,0.0
35,95,0,' 1',1,1,1,0.0,0.0,2,'            ',1,0,1.0,0,1.0,0,1.0,0,1.0
0.0061,0.04956,100.0,
1.0,0.0,0.0,350.0,420.0,504.0,0,1,1.5,0.5,1.5,1.5,33,0,0.0,0.0
1.0,0.0
36,77,0,' 1',1,1,1,0.0,0.0,2,'            ',1,0,1.0,0,1.0,0,1.0,0,1.0
0.0061,0.04956,100.0,
1.0,0.0,0.0,350.0,420.0,504.0,0,1,1.5,0.5,1.5,1.5,33,0,0.0,0.0
1.0,0.0
37,66,0,' 1',1,1,1,0.0,0.0,2,'            ',1,0,1.0,0,1.0,0,1.0,0,1.0
0.0061,0.04956,100.0,
1.0,0.0,0.0,350.0,420.0,504.0,0,1,1.5,0.5,1.5,1.5,33,0,0.0,0.0
1.0,0.0
38,96,0,' 1',1,1,1,0.0,0.0,2,'            ',1,0,1.0,0,1.0,0,1.0,0,1.0
0.0061,0.04956,100.0,
1.0,0.0,0.0,350.0,420.0,504.0,0,1,1.5,0.5,1.5,1.5,33,0,0.0,0.0
1.0,0.0
40,68,0,' 1',1,1,1,0.0,0.0,2,'            ',1,0,1.0,0,1.0,0,1.0,0,1.0
0.0061,0.04956,100.0,
1.0,0.0,0.0,350.0,420.0,504.0,0,1,1.5,0.5,1.5,1.5,33,0,0.0,0.0
1.0,0.0
41,78,0,' 1',1,1,1,0.0,0.0,2,'            ',1,0,1.0,0,1.0,0,1.0,0,1.0
0.0061,0.04956,100.0,
1.0,0.0,0.0,350.0,420.0,504.0,0,1,1.5,0.5,1.5,1.5,33,0,0.0,0.0
1.0,0.0
42,79,0,' 1',1,1,1,0.0,0.0,2,'            ',1,0,1.0,0,1.0,0,1.0,0,1.0
0.0061,0.04956,100.0,
1.0,0.0,0.0,350.0,420.0,504.0,0,1,1.5,0.5,1.5,1.5,33,0,0.0,0.0
1.0,0.0
43,67,0,' 1',1,1,1,0.0,0.0,2,'            ',1,0,1.0,0,1.0,0,1.0,0,1.0
0.0061,0.04956,100.0,
1.0,0.0,0.0,350.0,420.0,504.0,0,1,1.5,0.5,1.5,1.5,33,0,0.0,0.0
1.0,0.0
44,80,0,' 1',1,1,1,0.0,0.0,2,'            ',1,0,1.0,0,1.0,0,1.0,0,1.0
0.0061,0.04956,100.0,
1.0,0.0,0.0,350.0,420.0,504.0,0,1,1.5,0.5,1.5,1.5,33,0,0.0,0.0
1.0,0.0
45,92,0,' 1',1,1,1,0.0,0.0,2,'            ',1,0,1.0,0,1.0,0,1.0,0,1.0
0.0061,0.04956,100.0,
1.0,0.0,0.0,350.0,420.0,504.0,0,1,1.5,0.5,1.5,1.5,33,0,0.0,0.0
1.0,0.0
47,84,0,' 1',1,1,1,0.0,0.0,2,'            ',1,0,1.0,0,1.0,0,1.0,0,1.0
0.0061,0.04956,100.0,
1.0,0.0,0.0,350.0,420.0,504.0,0,1,1.5,0.5,1.5,1.5,33,0,0.0,0.0
1.0,0.0
49,78,0,' 1',1,1,1,0.0,0.0,2,'            ',1,0,1.0,0,1.0,0,1.0,0,1.0
0.0061,0.04956,100.0,
1.0,0.0,0.0,350.0,420.0,504.0,0,1,1.5,0.5,1.5,1.5,33,0,0.0,0.0
1.0,0.0
50,67,0,' 1',1,1,1,0.0,0.0,2,'            ',1,0,1.0,0,1.0,0,1.0,0,1.0
0.0061,0.04956,100.0,
1.0,0.0,0.0,350.0,420.0,504.0,0,1,1.5,0.5,1.5,1.5,33,0,0.0,0.0
1.0,0.0
51,9,0,' 1',1,1,1,0.0,0.0,2,'            ',1,0,1.0,0,1.0,0,1.0,0,1.0
0.00228,0.07997,100.0,
1.0,0.0,0.0,700.0,840.0,1008.0,0,1,1.5,0.5,1.5,1.5,33,0,0.0,0.0
1.0,0.0
52,30,0,' 1',1,1,1,0.0,0.0,2,'            ',1,0,1.0,0,1.0,0,1.0,0,1.0
0.00228,0.07997,100.0,
1.0,0.0,0.0,700.0,840.0,1008.0,0,1,1.5,0.5,1.5,1.5,33,0,0.0,0.0
1.0,0.0
53,10,0,' 1',1,1,1,0.0,0.0,2,'            ',1,0,1.0,0,1.0,0,1.0,0,1.0
0.00228,0.07997,100.0,
1.0,0.0,0.0,700.0,840.0,1008.0,0,1,1.5,0.5,1.5,1.5,33,0,0.0,0.0
1.0,0.0
54,2,0,' 1',1,1,1,0.0,0.0,2,'            ',1,0,1.0,0,1.0,0,1.0,0,1.0
0.00228,0.07997,100.0,
1.0,0.0,0.0,700.0,840.0,1008.0,0,1,1.5,0.5,1.5,1.5,33,0,0.0,0.0
1.0,0.0
55,32,0,' 1',1,1,1,0.0,0.0,2,'            ',1,0,1.0,0,1.0,0,1.0,0,1.0
0.00228,0.07997,100.0,
1.0,0.0,0.0,700.0,840.0,1008.0,0,1,1.5,0.5,1.5,1.5,33,0,0.0,0.0
1.0,0.0
56,9,0,' 1',1,1,1,0.0,0.0,2,'            ',1,0,1.0,0,1.0,0,1.0,0,1.0
0.001630692,0.0126704768,100.0,
1.0,0.0,0.0,700.0,840.0,1008.0,0,1,1.5,0.5,1.5,1.5,33,0,0.0,0.0
1.0,0.0
56,34,0,' 1',1,1,1,0.0,0.0,2,'            ',1,0,1.0,0,1.0,0,1.0,0,1.0
0.00228,0.07997,100.0,
1.0,0.0,0.0,700.0,840.0,1008.0,0,1,1.5,0.5,1.5,1.5,33,0,0.0,0.0
1.0,0.0
57,1,0,' 1',1,1,1,0.0,0.0,2,'            ',1,0,1.0,0,1.0,0,1.0,0,1.0
0.00228,0.07997,100.0,
1.0,0.0,0.0,700.0,840.0,1008.0,0,1,1.5,0.5,1.5,1.5,33,0,0.0,0.0
1.0,0.0
58,35,0,' 1',1,1,1,0.0,0.0,2,'            ',1,0,1.0,0,1.0,0,1.0,0,1.0
0.00228,0.07997,100.0,
1.0,0.0,0.0,700.0,840.0,1008.0,0,1,1.5,0.5,1.5,1.5,33,0,0.0,0.0
1.0,0.0
...
0 / END OF TRANSFORMER DATA, BEGIN AREA INTERCHANGE DATA
1,0,0.0,10.0,'            '
0 / END OF AREA INTERCHANGE DATA, BEGIN TWO-TERMINAL DC LINE DATA
0 / END OF TWO-TERMINAL DC LINE DATA, BEGIN VSC DC LINE DATA
0 / END OF VSC DC LINE DATA, BEGIN SWITCHED SHUNT DATA
3,2,1.075,0.9875,0,100.0,'            ',6.72177793,15,-1.0,40,1.0,0,0.0,0,0.0,0,0.0,0,0.0,0,0.0,0,0.0
4,2,1.075,0.9875,0,100.0,'            ',4.71656104,15,-1.0,40,1.0,0,0.0,0,0.0,0,0.0,0,0.0,0,0.0,0,0.0
5,2,1.075,0.9875,0,100.0,'            ',16.99473337,15,-1.0,40,1.0,0,0.0,0,0.0,0,0.0,0,0.0,0,0.0,0,0.0
8,2,1.075,0.9875,0,100.0,'            ',26.23927587,15,-1.0,40,1.0,0,0.0,0,0.0,0,0.0,0,0.0,0,0.0,0,0.0
20,2,1.075,0.9875,0,100.0,'            ',36.93211142,15,-1.0,40,1.0,0,0.0,0,0.0,0,0.0,0,0.0,0,0.0,0,0.0
21,2,1.075,0.9875,0,100.0,'            ',9.16728409,15,-1.0,40,1.0,0,0.0,0,0.0,0,0.0,0,0.0,0,0.0,0,0.0
26,2,1.075,0.9875,0,100.0,'            ',35.03984619,15,-1.0,40,1.0,0,0.0,0,0.0,0,0.0,0,0.0,0,0.0,0,0.0
29,2,1.075,0.9875,0,100.0,'            ',35.70768966,15,-1.0,40,1.0,0,0.0,0,0.0,0,0.0,0,0.0,0,0.0,0,0.0
35,2,1.075,0.9875,0,100.0,'            ',35.37963632,15,-1.0,40,1.0,0,0.0,0,0.0,0,0.0,0,0.0,0,0.0,0,0.0
38,2,1.075,0.9875,0,100.0,'            ',32.99385143,15,-1.0,40,1.0,0,0.0,0,0.0,0,0.0,0,0.0,0,0.0,0,0.0
48,2,1.075,0.9875,0,100.0,'            ',16.45846177,15,-1.0,40,1.0,0,0.0,0,0.0,0,0.0,0,0.0,0,0.0,0,0.0
0 / END OF SWITCHED SHUNT DATA, BEGIN TRANSFORMER IMPEDANCE CORRECTION DATA
0 / END OF TRANSFORMER IMPEDANCE CORRECTION DATA, BEGIN MULTI-TERMINAL DC LINE DATA
0 / END OF MULTI-TERMINAL DC LINE DATA, BEGIN MULTI-SECTION LINE GROUPING DATA
0 / END OF MULTI-SECTION LINE GROUPING DATA, BEGIN ZONE DATA
0 / END OF ZONE DATA, BEGIN INTER-AREA TRANSFER DATA
0 / END OF INTER-AREA TRANSFER DATA, BEGIN OWNER DATA
0 / END OF OWNER DATA, BEGIN FACTS CONTROL DEVICE DATA
0 / END OF FACTS CONTROL DEVICE DATA, END OF CASE DATA
